

        *** GPGPU-Sim Simulator Version 3.2.2  [build 0] ***


GPGPU-Sim PTX: simulation mode 0 (can change with PTX_SIM_MODE_FUNC environment variable:
               1=functional simulation only, 0=detailed performance simulator)
GPGPU-Sim: Configuration options:

-network_mode                           1 # Interconnection network mode
-inter_config_file   config_fermi_islip.icnt # Interconnection network config file
-gpgpu_ptx_use_cuobjdump                    1 # Use cuobjdump to extract ptx and sass from binaries
-gpgpu_experimental_lib_support                    0 # Try to extract code from cuda libraries [Broken because of unknown cudaGetExportTable]
-gpgpu_ptx_convert_to_ptxplus                    0 # Convert SASS (native ISA) to ptxplus and run ptxplus
-gpgpu_ptx_force_max_capability                   20 # Force maximum compute capability
-gpgpu_ptx_inst_debug_to_file                    0 # Dump executed instructions' debug information to file
-gpgpu_ptx_inst_debug_file       inst_debug.txt # Executed instructions' debug output file
-gpgpu_ptx_inst_debug_thread_uid                    1 # Thread UID for executed instructions' debug output
-gpgpu_simd_model                       1 # 1 = post-dominator
-gpgpu_shader_core_pipeline              1536:32 # shader core pipeline config, i.e., {<nthread>:<warpsize>}
-gpgpu_tex_cache:l1  4:128:24,L:R:m:N:L,F:128:4,128:2 # per-shader L1 texture cache  (READ-ONLY) config  {<nsets>:<bsize>:<assoc>,<rep>:<wr>:<alloc>:<wr_alloc>,<mshr>:<N>:<merge>,<mq>:<rf>}
-gpgpu_const_cache:l1 64:64:2,L:R:f:N:L,A:2:32,4 # per-shader L1 constant memory cache  (READ-ONLY) config  {<nsets>:<bsize>:<assoc>,<rep>:<wr>:<alloc>:<wr_alloc>,<mshr>:<N>:<merge>,<mq>} 
-gpgpu_cache:il1     4:128:4,L:R:f:N:L,A:2:32,4 # shader L1 instruction cache config  {<nsets>:<bsize>:<assoc>,<rep>:<wr>:<alloc>:<wr_alloc>,<mshr>:<N>:<merge>,<mq>} 
-gpgpu_cache:dl1     32:128:4,L:L:m:N:H,A:32:8,8 # per-shader L1 data cache config  {<nsets>:<bsize>:<assoc>,<rep>:<wr>:<alloc>:<wr_alloc>,<mshr>:<N>:<merge>,<mq> | none}
-gpgpu_cache:dl1PrefL1                 none # per-shader L1 data cache config  {<nsets>:<bsize>:<assoc>,<rep>:<wr>:<alloc>:<wr_alloc>,<mshr>:<N>:<merge>,<mq> | none}
-gpgpu_cache:dl1PreShared                 none # per-shader L1 data cache config  {<nsets>:<bsize>:<assoc>,<rep>:<wr>:<alloc>:<wr_alloc>,<mshr>:<N>:<merge>,<mq> | none}
-gmem_skip_L1D                          0 # global memory access skip L1D cache (implements -Xptxas -dlcm=cg, default=no skip)
-gpgpu_perfect_mem                      0 # enable perfect memory mode (no cache miss)
-n_regfile_gating_group                    4 # group of lanes that should be read/written together)
-gpgpu_clock_gated_reg_file                    0 # enable clock gated reg file for power calculations
-gpgpu_clock_gated_lanes                    0 # enable clock gated lanes for power calculations
-gpgpu_shader_registers                32768 # Number of registers per shader core. Limits number of concurrent CTAs. (default 8192)
-gpgpu_shader_cta                       8 # Maximum number of concurrent CTAs in shader (default 8)
-gpgpu_num_cta_barriers                   16 # Maximum number of named barriers per CTA (default 16)
-gpgpu_n_clusters                      15 # number of processing clusters
-gpgpu_n_cores_per_cluster                    1 # number of simd cores per cluster
-gpgpu_n_cluster_ejection_buffer_size                    8 # number of packets in ejection buffer
-gpgpu_n_ldst_response_buffer_size                    2 # number of response packets in ld/st unit ejection buffer
-gpgpu_shmem_size                   16384 # Size of shared memory per shader core (default 16kB)
-gpgpu_shmem_size                   49152 # Size of shared memory per shader core (default 16kB)
-gpgpu_shmem_size_PrefL1                16384 # Size of shared memory per shader core (default 16kB)
-gpgpu_shmem_size_PrefShared                16384 # Size of shared memory per shader core (default 16kB)
-gpgpu_shmem_num_banks                   32 # Number of banks in the shared memory in each shader core (default 16)
-gpgpu_shmem_limited_broadcast                    0 # Limit shared memory to do one broadcast per cycle (default on)
-gpgpu_shmem_warp_parts                    1 # Number of portions a warp is divided into for shared memory bank conflict check 
-gpgpu_warpdistro_shader                   -1 # Specify which shader core to collect the warp size distribution from
-gpgpu_warp_issue_shader                    0 # Specify which shader core to collect the warp issue distribution from
-gpgpu_local_mem_map                    1 # Mapping from local memory space address to simulated GPU physical address space (default = enabled)
-gpgpu_num_reg_banks                   16 # Number of register banks (default = 8)
-gpgpu_reg_bank_use_warp_id                    0 # Use warp ID in mapping registers to banks (default = off)
-gpgpu_operand_collector_num_units_sp                    6 # number of collector units (default = 4)
-gpgpu_operand_collector_num_units_sfu                    8 # number of collector units (default = 4)
-gpgpu_operand_collector_num_units_mem                    2 # number of collector units (default = 2)
-gpgpu_operand_collector_num_units_gen                    0 # number of collector units (default = 0)
-gpgpu_operand_collector_num_in_ports_sp                    2 # number of collector unit in ports (default = 1)
-gpgpu_operand_collector_num_in_ports_sfu                    1 # number of collector unit in ports (default = 1)
-gpgpu_operand_collector_num_in_ports_mem                    1 # number of collector unit in ports (default = 1)
-gpgpu_operand_collector_num_in_ports_gen                    0 # number of collector unit in ports (default = 0)
-gpgpu_operand_collector_num_out_ports_sp                    2 # number of collector unit in ports (default = 1)
-gpgpu_operand_collector_num_out_ports_sfu                    1 # number of collector unit in ports (default = 1)
-gpgpu_operand_collector_num_out_ports_mem                    1 # number of collector unit in ports (default = 1)
-gpgpu_operand_collector_num_out_ports_gen                    0 # number of collector unit in ports (default = 0)
-gpgpu_coalesce_arch                   13 # Coalescing arch (default = 13, anything else is off for now)
-gpgpu_num_sched_per_core                    2 # Number of warp schedulers per core
-gpgpu_max_insn_issue_per_warp                    1 # Max number of instructions that can be issued per warp in one cycle by scheduler
-gpgpu_simt_core_sim_order                    1 # Select the simulation order of cores in a cluster (0=Fix, 1=Round-Robin)
-gpgpu_pipeline_widths        2,1,1,2,1,1,2 # Pipeline widths ID_OC_SP,ID_OC_SFU,ID_OC_MEM,OC_EX_SP,OC_EX_SFU,OC_EX_MEM,EX_WB
-gpgpu_num_sp_units                     2 # Number of SP units (default=1)
-gpgpu_num_sfu_units                    1 # Number of SF units (default=1)
-gpgpu_num_mem_units                    1 # Number if ldst units (default=1) WARNING: not hooked up to anything
-gpgpu_scheduler                      gto # Scheduler configuration: < lrr | gto | two_level_active > If two_level_active:<num_active_warps>:<inner_prioritization>:<outer_prioritization>For complete list of prioritization values see shader.h enum scheduler_prioritization_typeDefault: gto
-gpgpu_dram_scheduler                    1 # 0 = fifo, 1 = FR-FCFS (defaul)
-gpgpu_dram_partition_queues              8:8:8:8 # i2$:$2d:d2$:$2i
-l2_ideal                               0 # Use a ideal L2 cache that always hit
-gpgpu_cache:dl2     64:128:8,L:B:m:W:L,A:32:4,4:0,32 # unified banked L2 data cache config  {<nsets>:<bsize>:<assoc>,<rep>:<wr>:<alloc>:<wr_alloc>,<mshr>:<N>:<merge>,<mq>}
-gpgpu_cache:dl2_texture_only                    0 # L2 cache used for texture only
-gpgpu_n_mem                            6 # number of memory modules (e.g. memory controllers) in gpu
-gpgpu_n_sub_partition_per_mchannel                    2 # number of memory subpartition in each memory module
-gpgpu_n_mem_per_ctrlr                    2 # number of memory chips per memory controller
-gpgpu_memlatency_stat                   14 # track and display latency statistics 0x2 enables MC, 0x4 enables queue logs
-gpgpu_frfcfs_dram_sched_queue_size                   16 # 0 = unlimited (default); # entries per chip
-gpgpu_dram_return_queue_size                  116 # 0 = unlimited (default); # entries per chip
-gpgpu_dram_buswidth                    4 # default = 4 bytes (8 bytes per cycle at DDR)
-gpgpu_dram_burst_length                    8 # Burst length of each DRAM request (default = 4 data bus cycle)
-dram_data_command_freq_ratio                    4 # Frequency ratio between DRAM data bus and command bus (default = 2 times, i.e. DDR)
-gpgpu_dram_timing_opt nbk=16:CCD=2:RRD=6:RCD=12:RAS=28:RP=12:RC=40: CL=12:WL=4:CDLR=5:WR=12:nbkgrp=4:CCDL=3:RTPL=2 # DRAM timing parameters = {nbk:tCCD:tRRD:tRCD:tRAS:tRP:tRC:CL:WL:tCDLR:tWR:nbkgrp:tCCDL:tRTPL}
-rop_latency                          120 # ROP queue latency (default 85)
-dram_latency                         100 # DRAM latency (default 30)
-gpgpu_mem_addr_mapping dramid@8;00000000.00000000.00000000.00000000.0000RRRR.RRRRRRRR.BBBCCCCB.CCSSSSSS # mapping memory address to dram model {dramid@<start bit>;<memory address map>}
-gpgpu_mem_addr_test                    0 # run sweep test to check address mapping for aliased address
-gpgpu_mem_address_mask                    1 # 0 = old addressing mask, 1 = new addressing mask, 2 = new add. mask + flipped bank sel and chip sel bits
-gpuwattch_xml_file  gpuwattch_gtx480.xml # GPUWattch XML file
-power_simulation_enabled                    1 # Turn on power simulator (1=On, 0=Off)
-power_per_cycle_dump                    0 # Dump detailed power output each cycle
-power_trace_enabled                    0 # produce a file for the power trace (1=On, 0=Off)
-power_trace_zlevel                     6 # Compression level of the power trace output log (0=no comp, 9=highest)
-steady_power_levels_enabled                    0 # produce a file for the steady power levels (1=On, 0=Off)
-steady_state_definition                  8:4 # allowed deviation:number of samples
-gpgpu_max_cycle                        0 # terminates gpu simulation early (0 = no limit)
-gpgpu_max_insn                         0 # terminates gpu simulation early (0 = no limit)
-gpgpu_max_cta                          0 # terminates gpu simulation early (0 = no limit)
-gpgpu_runtime_stat                   500 # display runtime statistics such as dram utilization {<freq>:<flag>}
-liveness_message_freq                    1 # Minimum number of seconds between simulation liveness messages (0 = always print)
-gpgpu_flush_l1_cache                    0 # Flush L1 cache at the end of each kernel call
-gpgpu_flush_l2_cache                    0 # Flush L2 cache at the end of each kernel call
-gpgpu_deadlock_detect                    1 # Stop the simulation at deadlock (1=on (default), 0=off)
-gpgpu_ptx_instruction_classification                    0 # if enabled will classify ptx instruction types per kernel (Max 255 kernels now)
-gpgpu_ptx_sim_mode                     0 # Select between Performance (default) or Functional simulation (1)
-gpgpu_clock_domains 700.0:700.0:700.0:924.0 # Clock Domain Frequencies in MhZ {<Core Clock>:<ICNT Clock>:<L2 Clock>:<DRAM Clock>}
-gpgpu_max_concurrent_kernel                    8 # maximum kernels that can run concurrently on GPU
-gpgpu_cflog_interval                    0 # Interval between each snapshot in control flow logger
-visualizer_enabled                     0 # Turn on visualizer output (1=On, 0=Off)
-visualizer_outputfile                 NULL # Specifies the output log file for visualizer
-visualizer_zlevel                      6 # Compression level of the visualizer output log (0=no comp, 9=highest)
-trace_enabled                          0 # Turn on traces
-trace_components                    none # comma seperated list of traces to enable. Complete list found in trace_streams.tup. Default none
-trace_sampling_core                    0 # The core which is printed using CORE_DPRINTF. Default 0
-trace_sampling_memory_partition                   -1 # The memory partition which is printed using MEMPART_DPRINTF. Default -1 (i.e. all)
-enable_ptx_file_line_stats                    1 # Turn on PTX source line statistic profiling. (1 = On)
-ptx_line_stats_filename gpgpu_inst_stats.txt # Output file for PTX source line statistics.
-save_embedded_ptx                      0 # saves ptx files embedded in binary as <n>.ptx
-keep                                   0 # keep intermediate files created by GPGPU-Sim when interfacing with external programs
-gpgpu_ptx_save_converted_ptxplus                    0 # Saved converted ptxplus to a file
-ptx_opcode_latency_int         4,13,4,5,145 # Opcode latencies for integers <ADD,MAX,MUL,MAD,DIV>Default 1,1,19,25,145
-ptx_opcode_latency_fp          4,13,4,5,39 # Opcode latencies for single precision floating points <ADD,MAX,MUL,MAD,DIV>Default 1,1,1,1,30
-ptx_opcode_latency_dp         8,19,8,8,330 # Opcode latencies for double precision floating points <ADD,MAX,MUL,MAD,DIV>Default 8,8,8,8,335
-ptx_opcode_initiation_int            1,2,2,1,8 # Opcode initiation intervals for integers <ADD,MAX,MUL,MAD,DIV>Default 1,1,4,4,32
-ptx_opcode_initiation_fp            1,2,1,1,4 # Opcode initiation intervals for single precision floating points <ADD,MAX,MUL,MAD,DIV>Default 1,1,1,1,5
-ptx_opcode_initiation_dp         8,16,8,8,130 # Opcode initiation intervals for double precision floating points <ADD,MAX,MUL,MAD,DIV>Default 8,8,8,8,130
DRAM Timing Options:
nbk                                    16 # number of banks
CCD                                     2 # column to column delay
RRD                                     6 # minimal delay between activation of rows in different banks
RCD                                    12 # row to column delay
RAS                                    28 # time needed to activate row
RP                                     12 # time needed to precharge (deactivate) row
RC                                     40 # row cycle time
CDLR                                    5 # switching from write to read (changes tWTR)
WR                                     12 # last data-in to row precharge
CL                                     12 # CAS latency
WL                                      4 # Write latency
nbkgrp                                  4 # number of bank groups
CCDL                                    3 # column to column delay between accesses to different bank groups
RTPL                                    2 # read to precharge delay between accesses to different bank groups
Total number of memory sub partition = 12
addr_dec_mask[CHIP]  = 0000000000000000 	high:64 low:0
addr_dec_mask[BK]    = 000000000000e100 	high:16 low:8
addr_dec_mask[ROW]   = 000000000fff0000 	high:28 low:16
addr_dec_mask[COL]   = 0000000000001eff 	high:13 low:0
addr_dec_mask[BURST] = 000000000000003f 	high:6 low:0
sub_partition_id_mask = 0000000000000100
GPGPU-Sim uArch: clock freqs: 700000000.000000:700000000.000000:700000000.000000:924000000.000000
GPGPU-Sim uArch: clock periods: 0.00000000142857142857:0.00000000142857142857:0.00000000142857142857:0.00000000108225108225
*** Initializing Memory Statistics ***
GPGPU-Sim uArch: interconnect node map (shaderID+MemID to icntID)
GPGPU-Sim uArch: Memory nodes ID start from index: 15
GPGPU-Sim uArch:    0   1   2   3   4
GPGPU-Sim uArch:    5   6   7   8   9
GPGPU-Sim uArch:   10  11  12  13  14
GPGPU-Sim uArch:   15  16  17  18  19
GPGPU-Sim uArch:   20  21  22  23  24
GPGPU-Sim uArch:   25  26
GPGPU-Sim uArch: interconnect node reverse map (icntID to shaderID+MemID)
GPGPU-Sim uArch: Memory nodes start from ID: 15
GPGPU-Sim uArch:    0   1   2   3   4
GPGPU-Sim uArch:    5   6   7   8   9
GPGPU-Sim uArch:   10  11  12  13  14
GPGPU-Sim uArch:   15  16  17  18  19
GPGPU-Sim uArch:   20  21  22  23  24
GPGPU-Sim uArch:   25  26
55e9fdf9601075fda282c311cc145645  /root/UCR-CS217-GPU/Lab1/reduction-starter/step1/reduction
GPGPU-Sim uArch: performance model initialization complete.
GPGPU-Sim PTX: __cudaRegisterFatBinary, fat_cubin_handle = 1, filename=main.cu
self exe links to: /root/UCR-CS217-GPU/Lab1/reduction-starter/step1/reduction
Running md5sum using "md5sum /root/UCR-CS217-GPU/Lab1/reduction-starter/step1/reduction "
Running cuobjdump using "$CUDA_INSTALL_PATH/bin/cuobjdump -ptx -elf -sass /root/UCR-CS217-GPU/Lab1/reduction-starter/step1/reduction > _cuobjdump_complete_output_gJBJ5Y"
Parsing file _cuobjdump_complete_output_gJBJ5Y
######### cuobjdump parser ########
## Adding new section ELF
Adding arch: sm_10
Adding identifier: main.cu
## Adding new section PTX
Adding ptx filename: _cuobjdump_1.ptx
Adding arch: sm_10
Adding identifier: main.cu
## Adding new section ELF
Adding arch: sm_10
Adding identifier: support.cu
## Adding new section PTX
Adding ptx filename: _cuobjdump_2.ptx
Adding arch: sm_10
Adding identifier: support.cu
Done parsing!!!
GPGPU-Sim PTX: __cudaRegisterFunction _Z9reductionPfS_j : hostFun 0x0x400e40, fat_cubin_handle = 1
GPGPU-Sim PTX: allocating shared region for "__cuda___cuda_local_var_16308_35_non_const_partialSum20" from 0x0 to 0x1000 (shared memory space)
GPGPU-Sim PTX: instruction assembly for function '_Z9reductionPfS_j'...   done.
GPGPU-Sim PTX: finding reconvergence points for '_Z9reductionPfS_j'...
GPGPU-Sim PTX: Finding dominators for '_Z9reductionPfS_j'...
GPGPU-Sim PTX: Finding immediate dominators for '_Z9reductionPfS_j'...
GPGPU-Sim PTX: Finding postdominators for '_Z9reductionPfS_j'...
GPGPU-Sim PTX: Finding immediate postdominators for '_Z9reductionPfS_j'...
GPGPU-Sim PTX: pre-decoding instructions for '_Z9reductionPfS_j'...
GPGPU-Sim PTX: reconvergence points for _Z9reductionPfS_j...
GPGPU-Sim PTX:  1 (potential) branch divergence @  PC=0x060 (_1.ptx:73) @%p1 bra $Lt_0_4610;
GPGPU-Sim PTX:    immediate post dominator      @  PC=0x0b0 (_1.ptx:87) add.u32 %r8, %r5, %r1;
GPGPU-Sim PTX:  2 (potential) branch divergence @  PC=0x098 (_1.ptx:81) bra.uni $Lt_0_4354;
GPGPU-Sim PTX:    immediate post dominator      @  PC=0x0b0 (_1.ptx:87) add.u32 %r8, %r5, %r1;
GPGPU-Sim PTX:  3 (potential) branch divergence @  PC=0x0f0 (_1.ptx:97) @%p2 bra $Lt_0_5122;
GPGPU-Sim PTX:    immediate post dominator      @  PC=0x140 (_1.ptx:111) mov.u32 %r11, 1;
GPGPU-Sim PTX:  4 (potential) branch divergence @  PC=0x128 (_1.ptx:105) bra.uni $Lt_0_4866;
GPGPU-Sim PTX:    immediate post dominator      @  PC=0x140 (_1.ptx:111) mov.u32 %r11, 1;
GPGPU-Sim PTX:  5 (potential) branch divergence @  PC=0x150 (_1.ptx:113) @%p3 bra $Lt_0_5378;
GPGPU-Sim PTX:    immediate post dominator      @  PC=0x200 (_1.ptx:142) mov.u32 %r17, 0;
GPGPU-Sim PTX:  6 (potential) branch divergence @  PC=0x180 (_1.ptx:122) @%p4 bra $Lt_0_6146;
GPGPU-Sim PTX:    immediate post dominator      @  PC=0x1e8 (_1.ptx:138) mul.lo.u32 %r12, %r12, 2;
GPGPU-Sim PTX:  7 (potential) branch divergence @  PC=0x1f8 (_1.ptx:140) @%p5 bra $Lt_0_5890;
GPGPU-Sim PTX:    immediate post dominator      @  PC=0x200 (_1.ptx:142) mov.u32 %r17, 0;
GPGPU-Sim PTX:  8 (potential) branch divergence @  PC=0x210 (_1.ptx:144) @%p6 bra $Lt_0_6914;
GPGPU-Sim PTX:    immediate post dominator      @  PC=0x248 (_1.ptx:154) exit;
GPGPU-Sim PTX: ... end of reconvergence points for _Z9reductionPfS_j
GPGPU-Sim PTX: ... done pre-decoding instructions for '_Z9reductionPfS_j'.
GPGPU-Sim PTX: finished parsing EMBEDDED .ptx file _1.ptx
Adding _cuobjdump_1.ptx with cubin handle 1
GPGPU-Sim PTX: extracting embedded .ptx to temporary file "_ptx_fCa4nG"
Running: cat _ptx_fCa4nG | sed 's/.version 1.5/.version 1.4/' | sed 's/, texmode_independent//' | sed 's/\(\.extern \.const\[1\] .b8 \w\+\)\[\]/\1\[1\]/' | sed 's/const\[.\]/const\[0\]/g' > _ptx2_g02pGn
GPGPU-Sim PTX: generating ptxinfo using "$CUDA_INSTALL_PATH/bin/ptxas --gpu-name=sm_20 -v _ptx2_g02pGn --output-file  /dev/null 2> _ptx_fCa4nGinfo"
GPGPU-Sim PTX: Kernel '_Z9reductionPfS_j' : regs=10, lmem=0, smem=4096, cmem=52
GPGPU-Sim PTX: removing ptxinfo using "rm -f _ptx_fCa4nG _ptx2_g02pGn _ptx_fCa4nGinfo"
GPGPU-Sim PTX: loading globals with explicit initializers... 
GPGPU-Sim PTX: finished loading globals (0 bytes total).
GPGPU-Sim PTX: loading constants with explicit initializers...  done.
GPGPU-Sim PTX: __cudaRegisterFatBinary, fat_cubin_handle = 2, filename=support.cu

Setting up the problem...0.016336 s
    Input size = 1000000
Allocating device variables...0.000007 s
Copying data from host to device...0.103541 s
Launching kernel...
GPGPU-Sim PTX: cudaLaunch for 0x0x400e40 (mode=performance simulation) on stream 0
GPGPU-Sim PTX: pushing kernel '_Z9reductionPfS_j' to stream 0, gridDim= (977,1,1) blockDim = (512,1,1) 
kernel '_Z9reductionPfS_j' transfer to GPU hardware scheduler
GPGPU-Sim uArch: Shader 1 bind to kernel 1 '_Z9reductionPfS_j'
GPGPU-Sim uArch: CTA/core = 3, limited by: threads
GPGPU-Sim uArch: core:  1, cta: 0 initialized @(1,0)
GPGPU-Sim uArch: Shader 2 bind to kernel 1 '_Z9reductionPfS_j'
GPGPU-Sim uArch: core:  2, cta: 0 initialized @(1,0)
GPGPU-Sim uArch: Shader 3 bind to kernel 1 '_Z9reductionPfS_j'
GPGPU-Sim uArch: core:  3, cta: 0 initialized @(1,0)
GPGPU-Sim uArch: Shader 4 bind to kernel 1 '_Z9reductionPfS_j'
GPGPU-Sim uArch: core:  4, cta: 0 initialized @(1,0)
GPGPU-Sim uArch: Shader 5 bind to kernel 1 '_Z9reductionPfS_j'
GPGPU-Sim uArch: core:  5, cta: 0 initialized @(1,0)
GPGPU-Sim uArch: Shader 6 bind to kernel 1 '_Z9reductionPfS_j'
GPGPU-Sim uArch: core:  6, cta: 0 initialized @(1,0)
GPGPU-Sim uArch: Shader 7 bind to kernel 1 '_Z9reductionPfS_j'
GPGPU-Sim uArch: core:  7, cta: 0 initialized @(1,0)
GPGPU-Sim uArch: Shader 8 bind to kernel 1 '_Z9reductionPfS_j'
GPGPU-Sim uArch: core:  8, cta: 0 initialized @(1,0)
GPGPU-Sim uArch: Shader 9 bind to kernel 1 '_Z9reductionPfS_j'
GPGPU-Sim uArch: core:  9, cta: 0 initialized @(1,0)
GPGPU-Sim uArch: Shader 10 bind to kernel 1 '_Z9reductionPfS_j'
GPGPU-Sim uArch: core: 10, cta: 0 initialized @(1,0)
GPGPU-Sim uArch: Shader 11 bind to kernel 1 '_Z9reductionPfS_j'
GPGPU-Sim uArch: core: 11, cta: 0 initialized @(1,0)
GPGPU-Sim uArch: Shader 12 bind to kernel 1 '_Z9reductionPfS_j'
GPGPU-Sim uArch: core: 12, cta: 0 initialized @(1,0)
GPGPU-Sim uArch: Shader 13 bind to kernel 1 '_Z9reductionPfS_j'
GPGPU-Sim uArch: core: 13, cta: 0 initialized @(1,0)
GPGPU-Sim uArch: Shader 14 bind to kernel 1 '_Z9reductionPfS_j'
GPGPU-Sim uArch: core: 14, cta: 0 initialized @(1,0)
GPGPU-Sim uArch: Shader 0 bind to kernel 1 '_Z9reductionPfS_j'
GPGPU-Sim uArch: core:  0, cta: 0 initialized @(1,0)
GPGPU-Sim uArch: core:  1, cta: 1 initialized @(2,0)
GPGPU-Sim uArch: core:  2, cta: 1 initialized @(2,0)
GPGPU-Sim uArch: core:  3, cta: 1 initialized @(2,0)
GPGPU-Sim uArch: core:  4, cta: 1 initialized @(2,0)
GPGPU-Sim uArch: core:  5, cta: 1 initialized @(2,0)
GPGPU-Sim uArch: core:  6, cta: 1 initialized @(2,0)
GPGPU-Sim uArch: core:  7, cta: 1 initialized @(2,0)
GPGPU-Sim uArch: core:  8, cta: 1 initialized @(2,0)
GPGPU-Sim uArch: core:  9, cta: 1 initialized @(2,0)
GPGPU-Sim uArch: core: 10, cta: 1 initialized @(2,0)
GPGPU-Sim uArch: core: 11, cta: 1 initialized @(2,0)
GPGPU-Sim uArch: core: 12, cta: 1 initialized @(2,0)
GPGPU-Sim uArch: core: 13, cta: 1 initialized @(2,0)
GPGPU-Sim uArch: core: 14, cta: 1 initialized @(2,0)
GPGPU-Sim uArch: core:  0, cta: 1 initialized @(2,0)
GPGPU-Sim uArch: core:  1, cta: 2 initialized @(3,0)
GPGPU-Sim uArch: core:  2, cta: 2 initialized @(3,0)
GPGPU-Sim uArch: core:  3, cta: 2 initialized @(3,0)
GPGPU-Sim uArch: core:  4, cta: 2 initialized @(3,0)
GPGPU-Sim uArch: core:  5, cta: 2 initialized @(3,0)
GPGPU-Sim uArch: core:  6, cta: 2 initialized @(3,0)
GPGPU-Sim uArch: core:  7, cta: 2 initialized @(3,0)
GPGPU-Sim uArch: core:  8, cta: 2 initialized @(3,0)
GPGPU-Sim uArch: core:  9, cta: 2 initialized @(3,0)
GPGPU-Sim uArch: core: 10, cta: 2 initialized @(3,0)
GPGPU-Sim uArch: core: 11, cta: 2 initialized @(3,0)
GPGPU-Sim uArch: core: 12, cta: 2 initialized @(3,0)
GPGPU-Sim uArch: core: 13, cta: 2 initialized @(3,0)
GPGPU-Sim uArch: core: 14, cta: 2 initialized @(3,0)
GPGPU-Sim uArch: core:  0, cta: 2 initialized @(3,0)
GPGPU-Sim PTX: 100000 instructions simulated : ctaid=(15,0,0) tid=(191,0,0)
GPGPU-Sim uArch: cycles simulated: 500  inst.: 134016 (ipc=268.0) sim_rate=134016 (inst/sec) elapsed = 0:0:00:01 / Sun Jan 27 01:55:42 2019
GPGPU-Sim PTX: 200000 instructions simulated : ctaid=(24,0,0) tid=(383,0,0)
GPGPU-Sim PTX: 300000 instructions simulated : ctaid=(10,0,0) tid=(383,0,0)
GPGPU-Sim PTX: 400000 instructions simulated : ctaid=(42,0,0) tid=(287,0,0)
GPGPU-Sim PTX: 500000 instructions simulated : ctaid=(15,0,0) tid=(127,0,0)
GPGPU-Sim PTX: 600000 instructions simulated : ctaid=(42,0,0) tid=(191,0,0)
GPGPU-Sim uArch: cycles simulated: 2000  inst.: 625568 (ipc=312.8) sim_rate=312784 (inst/sec) elapsed = 0:0:00:02 / Sun Jan 27 01:55:43 2019
GPGPU-Sim PTX: 700000 instructions simulated : ctaid=(19,0,0) tid=(159,0,0)
GPGPU-Sim PTX: 800000 instructions simulated : ctaid=(9,0,0) tid=(95,0,0)
GPGPU-Sim PTX: 900000 instructions simulated : ctaid=(36,0,0) tid=(287,0,0)
GPGPU-Sim PTX: 1000000 instructions simulated : ctaid=(2,0,0) tid=(351,0,0)
GPGPU-Sim PTX: 1100000 instructions simulated : ctaid=(33,0,0) tid=(383,0,0)
GPGPU-Sim PTX: 1200000 instructions simulated : ctaid=(9,0,0) tid=(191,0,0)
GPGPU-Sim PTX: 1300000 instructions simulated : ctaid=(5,0,0) tid=(191,0,0)
GPGPU-Sim PTX: 1400000 instructions simulated : ctaid=(3,0,0) tid=(15,0,0)
GPGPU-Sim uArch: cycles simulated: 3500  inst.: 1323248 (ipc=378.1) sim_rate=441082 (inst/sec) elapsed = 0:0:00:03 / Sun Jan 27 01:55:44 2019
GPGPU-Sim PTX: 1500000 instructions simulated : ctaid=(12,0,0) tid=(190,0,0)
GPGPU-Sim PTX: 1600000 instructions simulated : ctaid=(14,0,0) tid=(319,0,0)
GPGPU-Sim PTX: 1700000 instructions simulated : ctaid=(43,0,0) tid=(78,0,0)
GPGPU-Sim PTX: 1800000 instructions simulated : ctaid=(17,0,0) tid=(348,0,0)
GPGPU-Sim PTX: 1900000 instructions simulated : ctaid=(36,0,0) tid=(290,0,0)
GPGPU-Sim PTX: 2000000 instructions simulated : ctaid=(24,0,0) tid=(413,0,0)
GPGPU-Sim PTX: 2100000 instructions simulated : ctaid=(29,0,0) tid=(247,0,0)
GPGPU-Sim uArch: cycles simulated: 5000  inst.: 2044698 (ipc=408.9) sim_rate=511174 (inst/sec) elapsed = 0:0:00:04 / Sun Jan 27 01:55:45 2019
GPGPU-Sim PTX: 2200000 instructions simulated : ctaid=(6,0,0) tid=(245,0,0)
GPGPU-Sim PTX: 2300000 instructions simulated : ctaid=(42,0,0) tid=(101,0,0)
GPGPU-Sim PTX: 2400000 instructions simulated : ctaid=(3,0,0) tid=(96,0,0)
GPGPU-Sim PTX: 2500000 instructions simulated : ctaid=(0,0,0) tid=(177,0,0)
GPGPU-Sim PTX: 2600000 instructions simulated : ctaid=(7,0,0) tid=(241,0,0)
GPGPU-Sim PTX: 2700000 instructions simulated : ctaid=(16,0,0) tid=(211,0,0)
GPGPU-Sim uArch: Shader 2 finished CTA #0 (6323,0), 2 CTAs running
GPGPU-Sim uArch: core:  2, cta: 0 initialized @(6324,0)
GPGPU-Sim PTX: 2800000 instructions simulated : ctaid=(13,0,0) tid=(119,0,0)
GPGPU-Sim uArch: Shader 1 finished CTA #0 (6363,0), 2 CTAs running
GPGPU-Sim uArch: core:  1, cta: 0 initialized @(6364,0)
GPGPU-Sim uArch: Shader 3 finished CTA #0 (6406,0), 2 CTAs running
GPGPU-Sim uArch: core:  3, cta: 0 initialized @(6407,0)
GPGPU-Sim uArch: Shader 8 finished CTA #0 (6417,0), 2 CTAs running
GPGPU-Sim uArch: core:  8, cta: 0 initialized @(6418,0)
GPGPU-Sim uArch: Shader 4 finished CTA #0 (6523,0), 2 CTAs running
GPGPU-Sim uArch: core:  4, cta: 0 initialized @(6524,0)
GPGPU-Sim uArch: Shader 7 finished CTA #0 (6536,0), 2 CTAs running
GPGPU-Sim uArch: core:  7, cta: 0 initialized @(6537,0)
GPGPU-Sim uArch: Shader 10 finished CTA #0 (6538,0), 2 CTAs running
GPGPU-Sim uArch: core: 10, cta: 0 initialized @(6539,0)
GPGPU-Sim PTX: 2900000 instructions simulated : ctaid=(34,0,0) tid=(320,0,0)
GPGPU-Sim uArch: Shader 5 finished CTA #0 (6569,0), 2 CTAs running
GPGPU-Sim uArch: core:  5, cta: 0 initialized @(6570,0)
GPGPU-Sim uArch: Shader 11 finished CTA #0 (6582,0), 2 CTAs running
GPGPU-Sim uArch: core: 11, cta: 0 initialized @(6583,0)
GPGPU-Sim uArch: Shader 12 finished CTA #0 (6600,0), 2 CTAs running
GPGPU-Sim uArch: core: 12, cta: 0 initialized @(6601,0)
GPGPU-Sim uArch: Shader 9 finished CTA #0 (6632,0), 2 CTAs running
GPGPU-Sim uArch: core:  9, cta: 0 initialized @(6633,0)
GPGPU-Sim uArch: Shader 0 finished CTA #0 (6654,0), 2 CTAs running
GPGPU-Sim uArch: core:  0, cta: 0 initialized @(6655,0)
GPGPU-Sim uArch: Shader 6 finished CTA #0 (6658,0), 2 CTAs running
GPGPU-Sim uArch: core:  6, cta: 0 initialized @(6659,0)
GPGPU-Sim uArch: Shader 13 finished CTA #0 (6659,0), 2 CTAs running
GPGPU-Sim uArch: core: 13, cta: 0 initialized @(6660,0)
GPGPU-Sim uArch: Shader 14 finished CTA #0 (6702,0), 2 CTAs running
GPGPU-Sim uArch: core: 14, cta: 0 initialized @(6703,0)
GPGPU-Sim PTX: 3000000 instructions simulated : ctaid=(47,0,0) tid=(140,0,0)
GPGPU-Sim PTX: 3100000 instructions simulated : ctaid=(16,0,0) tid=(17,0,0)
GPGPU-Sim uArch: Shader 1 finished CTA #1 (6971,0), 2 CTAs running
GPGPU-Sim uArch: core:  1, cta: 1 initialized @(6972,0)
GPGPU-Sim uArch: cycles simulated: 7000  inst.: 3035595 (ipc=433.7) sim_rate=607119 (inst/sec) elapsed = 0:0:00:05 / Sun Jan 27 01:55:46 2019
GPGPU-Sim PTX: 3200000 instructions simulated : ctaid=(45,0,0) tid=(150,0,0)
GPGPU-Sim uArch: Shader 2 finished CTA #1 (7106,0), 2 CTAs running
GPGPU-Sim uArch: core:  2, cta: 1 initialized @(7107,0)
GPGPU-Sim uArch: Shader 8 finished CTA #1 (7113,0), 2 CTAs running
GPGPU-Sim uArch: core:  8, cta: 1 initialized @(7114,0)
GPGPU-Sim PTX: 3300000 instructions simulated : ctaid=(37,0,0) tid=(300,0,0)
GPGPU-Sim uArch: Shader 11 finished CTA #1 (7246,0), 2 CTAs running
GPGPU-Sim uArch: core: 11, cta: 1 initialized @(7247,0)
GPGPU-Sim uArch: Shader 5 finished CTA #1 (7299,0), 2 CTAs running
GPGPU-Sim uArch: core:  5, cta: 1 initialized @(7300,0)
GPGPU-Sim uArch: Shader 3 finished CTA #1 (7375,0), 2 CTAs running
GPGPU-Sim uArch: core:  3, cta: 1 initialized @(7376,0)
GPGPU-Sim PTX: 3400000 instructions simulated : ctaid=(63,0,0) tid=(7,0,0)
GPGPU-Sim uArch: Shader 10 finished CTA #1 (7396,0), 2 CTAs running
GPGPU-Sim uArch: core: 10, cta: 1 initialized @(7397,0)
GPGPU-Sim uArch: Shader 14 finished CTA #1 (7421,0), 2 CTAs running
GPGPU-Sim uArch: core: 14, cta: 1 initialized @(7422,0)
GPGPU-Sim uArch: Shader 0 finished CTA #1 (7444,0), 2 CTAs running
GPGPU-Sim uArch: core:  0, cta: 1 initialized @(7445,0)
GPGPU-Sim uArch: Shader 6 finished CTA #1 (7454,0), 2 CTAs running
GPGPU-Sim uArch: core:  6, cta: 1 initialized @(7455,0)
GPGPU-Sim uArch: Shader 12 finished CTA #1 (7460,0), 2 CTAs running
GPGPU-Sim uArch: core: 12, cta: 1 initialized @(7461,0)
GPGPU-Sim uArch: Shader 4 finished CTA #1 (7471,0), 2 CTAs running
GPGPU-Sim uArch: core:  4, cta: 1 initialized @(7472,0)
GPGPU-Sim uArch: Shader 13 finished CTA #1 (7510,0), 2 CTAs running
GPGPU-Sim uArch: core: 13, cta: 1 initialized @(7511,0)
GPGPU-Sim uArch: Shader 7 finished CTA #1 (7518,0), 2 CTAs running
GPGPU-Sim uArch: core:  7, cta: 1 initialized @(7519,0)
GPGPU-Sim PTX: 3500000 instructions simulated : ctaid=(63,0,0) tid=(425,0,0)
GPGPU-Sim uArch: Shader 9 finished CTA #1 (7552,0), 2 CTAs running
GPGPU-Sim uArch: core:  9, cta: 1 initialized @(7553,0)
GPGPU-Sim PTX: 3600000 instructions simulated : ctaid=(44,0,0) tid=(298,0,0)
GPGPU-Sim PTX: 3700000 instructions simulated : ctaid=(32,0,0) tid=(354,0,0)
GPGPU-Sim PTX: 3800000 instructions simulated : ctaid=(63,0,0) tid=(16,0,0)
GPGPU-Sim uArch: cycles simulated: 8000  inst.: 3652675 (ipc=456.6) sim_rate=608779 (inst/sec) elapsed = 0:0:00:06 / Sun Jan 27 01:55:47 2019
GPGPU-Sim PTX: 3900000 instructions simulated : ctaid=(56,0,0) tid=(339,0,0)
GPGPU-Sim PTX: 4000000 instructions simulated : ctaid=(58,0,0) tid=(395,0,0)
GPGPU-Sim uArch: Shader 2 finished CTA #2 (8318,0), 2 CTAs running
GPGPU-Sim uArch: core:  2, cta: 2 initialized @(8319,0)
GPGPU-Sim PTX: 4100000 instructions simulated : ctaid=(69,0,0) tid=(222,0,0)
GPGPU-Sim uArch: Shader 3 finished CTA #2 (8476,0), 2 CTAs running
GPGPU-Sim uArch: core:  3, cta: 2 initialized @(8477,0)
GPGPU-Sim PTX: 4200000 instructions simulated : ctaid=(49,0,0) tid=(330,0,0)
GPGPU-Sim uArch: Shader 13 finished CTA #2 (8490,0), 2 CTAs running
GPGPU-Sim uArch: core: 13, cta: 2 initialized @(8491,0)
GPGPU-Sim uArch: Shader 12 finished CTA #2 (8493,0), 2 CTAs running
GPGPU-Sim uArch: core: 12, cta: 2 initialized @(8494,0)
GPGPU-Sim uArch: Shader 9 finished CTA #2 (8496,0), 2 CTAs running
GPGPU-Sim uArch: core:  9, cta: 2 initialized @(8497,0)
GPGPU-Sim uArch: Shader 11 finished CTA #2 (8497,0), 2 CTAs running
GPGPU-Sim uArch: core: 11, cta: 2 initialized @(8498,0)
GPGPU-Sim uArch: Shader 5 finished CTA #2 (8516,0), 2 CTAs running
GPGPU-Sim uArch: core:  5, cta: 2 initialized @(8517,0)
GPGPU-Sim uArch: Shader 1 finished CTA #2 (8524,0), 2 CTAs running
GPGPU-Sim uArch: core:  1, cta: 2 initialized @(8525,0)
GPGPU-Sim uArch: Shader 4 finished CTA #2 (8547,0), 2 CTAs running
GPGPU-Sim uArch: core:  4, cta: 2 initialized @(8548,0)
GPGPU-Sim uArch: Shader 14 finished CTA #2 (8577,0), 2 CTAs running
GPGPU-Sim uArch: core: 14, cta: 2 initialized @(8578,0)
GPGPU-Sim uArch: Shader 7 finished CTA #2 (8586,0), 2 CTAs running
GPGPU-Sim uArch: core:  7, cta: 2 initialized @(8587,0)
GPGPU-Sim uArch: Shader 8 finished CTA #2 (8591,0), 2 CTAs running
GPGPU-Sim uArch: core:  8, cta: 2 initialized @(8592,0)
GPGPU-Sim uArch: Shader 0 finished CTA #2 (8607,0), 2 CTAs running
GPGPU-Sim uArch: core:  0, cta: 2 initialized @(8608,0)
GPGPU-Sim uArch: Shader 6 finished CTA #2 (8610,0), 2 CTAs running
GPGPU-Sim uArch: core:  6, cta: 2 initialized @(8611,0)
GPGPU-Sim uArch: Shader 10 finished CTA #2 (8620,0), 2 CTAs running
GPGPU-Sim uArch: core: 10, cta: 2 initialized @(8621,0)
GPGPU-Sim PTX: 4300000 instructions simulated : ctaid=(80,0,0) tid=(405,0,0)
GPGPU-Sim PTX: 4400000 instructions simulated : ctaid=(86,0,0) tid=(437,0,0)
GPGPU-Sim PTX: 4500000 instructions simulated : ctaid=(64,0,0) tid=(369,0,0)
GPGPU-Sim uArch: cycles simulated: 9000  inst.: 4333578 (ipc=481.5) sim_rate=619082 (inst/sec) elapsed = 0:0:00:07 / Sun Jan 27 01:55:48 2019
GPGPU-Sim PTX: 4600000 instructions simulated : ctaid=(72,0,0) tid=(333,0,0)
GPGPU-Sim PTX: 4700000 instructions simulated : ctaid=(86,0,0) tid=(501,0,0)
GPGPU-Sim PTX: 4800000 instructions simulated : ctaid=(64,0,0) tid=(69,0,0)
GPGPU-Sim PTX: 4900000 instructions simulated : ctaid=(82,0,0) tid=(1,0,0)
GPGPU-Sim PTX: 5000000 instructions simulated : ctaid=(74,0,0) tid=(66,0,0)
GPGPU-Sim PTX: 5100000 instructions simulated : ctaid=(88,0,0) tid=(470,0,0)
GPGPU-Sim PTX: 5200000 instructions simulated : ctaid=(66,0,0) tid=(296,0,0)
GPGPU-Sim PTX: 5300000 instructions simulated : ctaid=(61,0,0) tid=(225,0,0)
GPGPU-Sim uArch: cycles simulated: 10500  inst.: 5149098 (ipc=490.4) sim_rate=643637 (inst/sec) elapsed = 0:0:00:08 / Sun Jan 27 01:55:49 2019
GPGPU-Sim PTX: 5400000 instructions simulated : ctaid=(45,0,0) tid=(60,0,0)
GPGPU-Sim PTX: 5500000 instructions simulated : ctaid=(78,0,0) tid=(239,0,0)
GPGPU-Sim PTX: 5600000 instructions simulated : ctaid=(88,0,0) tid=(371,0,0)
GPGPU-Sim PTX: 5700000 instructions simulated : ctaid=(70,0,0) tid=(457,0,0)
GPGPU-Sim uArch: Shader 8 finished CTA #0 (11134,0), 2 CTAs running
GPGPU-Sim uArch: core:  8, cta: 0 initialized @(11135,0)
GPGPU-Sim uArch: Shader 1 finished CTA #0 (11170,0), 2 CTAs running
GPGPU-Sim uArch: core:  1, cta: 0 initialized @(11171,0)
GPGPU-Sim PTX: 5800000 instructions simulated : ctaid=(67,0,0) tid=(268,0,0)
GPGPU-Sim uArch: Shader 2 finished CTA #0 (11242,0), 2 CTAs running
GPGPU-Sim uArch: core:  2, cta: 0 initialized @(11243,0)
GPGPU-Sim uArch: Shader 3 finished CTA #0 (11310,0), 2 CTAs running
GPGPU-Sim uArch: core:  3, cta: 0 initialized @(11311,0)
GPGPU-Sim uArch: Shader 4 finished CTA #0 (11346,0), 2 CTAs running
GPGPU-Sim uArch: core:  4, cta: 0 initialized @(11347,0)
GPGPU-Sim PTX: 5900000 instructions simulated : ctaid=(75,0,0) tid=(322,0,0)
GPGPU-Sim uArch: Shader 5 finished CTA #0 (11395,0), 2 CTAs running
GPGPU-Sim uArch: core:  5, cta: 0 initialized @(11396,0)
GPGPU-Sim uArch: Shader 7 finished CTA #0 (11411,0), 2 CTAs running
GPGPU-Sim uArch: core:  7, cta: 0 initialized @(11412,0)
GPGPU-Sim uArch: Shader 11 finished CTA #0 (11432,0), 2 CTAs running
GPGPU-Sim uArch: core: 11, cta: 0 initialized @(11433,0)
GPGPU-Sim uArch: Shader 12 finished CTA #0 (11456,0), 2 CTAs running
GPGPU-Sim uArch: core: 12, cta: 0 initialized @(11457,0)
GPGPU-Sim uArch: Shader 6 finished CTA #0 (11511,0), 2 CTAs running
GPGPU-Sim uArch: core:  6, cta: 0 initialized @(11512,0)
GPGPU-Sim uArch: Shader 10 finished CTA #0 (11523,0), 2 CTAs running
GPGPU-Sim uArch: core: 10, cta: 0 initialized @(11524,0)
GPGPU-Sim uArch: Shader 0 finished CTA #0 (11533,0), 2 CTAs running
GPGPU-Sim uArch: core:  0, cta: 0 initialized @(11534,0)
GPGPU-Sim uArch: Shader 14 finished CTA #0 (11542,0), 2 CTAs running
GPGPU-Sim uArch: core: 14, cta: 0 initialized @(11543,0)
GPGPU-Sim PTX: 6000000 instructions simulated : ctaid=(68,0,0) tid=(136,0,0)
GPGPU-Sim uArch: Shader 9 finished CTA #0 (11646,0), 2 CTAs running
GPGPU-Sim uArch: core:  9, cta: 0 initialized @(11647,0)
GPGPU-Sim PTX: 6100000 instructions simulated : ctaid=(70,0,0) tid=(313,0,0)
GPGPU-Sim uArch: Shader 13 finished CTA #0 (11783,0), 2 CTAs running
GPGPU-Sim uArch: core: 13, cta: 0 initialized @(11784,0)
GPGPU-Sim PTX: 6200000 instructions simulated : ctaid=(90,0,0) tid=(104,0,0)
GPGPU-Sim uArch: cycles simulated: 12000  inst.: 5995862 (ipc=499.7) sim_rate=666206 (inst/sec) elapsed = 0:0:00:09 / Sun Jan 27 01:55:50 2019
GPGPU-Sim PTX: 6300000 instructions simulated : ctaid=(91,0,0) tid=(29,0,0)
GPGPU-Sim PTX: 6400000 instructions simulated : ctaid=(69,0,0) tid=(22,0,0)
GPGPU-Sim PTX: 6500000 instructions simulated : ctaid=(103,0,0) tid=(10,0,0)
GPGPU-Sim PTX: 6600000 instructions simulated : ctaid=(94,0,0) tid=(481,0,0)
GPGPU-Sim uArch: Shader 8 finished CTA #1 (12671,0), 2 CTAs running
GPGPU-Sim uArch: core:  8, cta: 1 initialized @(12672,0)
GPGPU-Sim PTX: 6700000 instructions simulated : ctaid=(91,0,0) tid=(478,0,0)
GPGPU-Sim uArch: Shader 1 finished CTA #1 (12741,0), 2 CTAs running
GPGPU-Sim uArch: core:  1, cta: 1 initialized @(12742,0)
GPGPU-Sim uArch: Shader 2 finished CTA #1 (12794,0), 2 CTAs running
GPGPU-Sim uArch: core:  2, cta: 1 initialized @(12795,0)
GPGPU-Sim uArch: Shader 11 finished CTA #1 (12927,0), 2 CTAs running
GPGPU-Sim uArch: core: 11, cta: 1 initialized @(12928,0)
GPGPU-Sim PTX: 6800000 instructions simulated : ctaid=(85,0,0) tid=(477,0,0)
GPGPU-Sim uArch: cycles simulated: 13000  inst.: 6540689 (ipc=503.1) sim_rate=654068 (inst/sec) elapsed = 0:0:00:10 / Sun Jan 27 01:55:51 2019
GPGPU-Sim uArch: Shader 5 finished CTA #1 (13043,0), 2 CTAs running
GPGPU-Sim uArch: core:  5, cta: 1 initialized @(13044,0)
GPGPU-Sim uArch: Shader 0 finished CTA #1 (13063,0), 2 CTAs running
GPGPU-Sim uArch: core:  0, cta: 1 initialized @(13064,0)
GPGPU-Sim uArch: Shader 6 finished CTA #1 (13067,0), 2 CTAs running
GPGPU-Sim uArch: core:  6, cta: 1 initialized @(13068,0)
GPGPU-Sim uArch: Shader 10 finished CTA #1 (13068,0), 2 CTAs running
GPGPU-Sim uArch: core: 10, cta: 1 initialized @(13069,0)
GPGPU-Sim uArch: Shader 9 finished CTA #1 (13072,0), 2 CTAs running
GPGPU-Sim uArch: core:  9, cta: 1 initialized @(13073,0)
GPGPU-Sim uArch: Shader 13 finished CTA #1 (13074,0), 2 CTAs running
GPGPU-Sim uArch: core: 13, cta: 1 initialized @(13075,0)
GPGPU-Sim uArch: Shader 4 finished CTA #1 (13076,0), 2 CTAs running
GPGPU-Sim uArch: core:  4, cta: 1 initialized @(13077,0)
GPGPU-Sim uArch: Shader 3 finished CTA #1 (13080,0), 2 CTAs running
GPGPU-Sim uArch: core:  3, cta: 1 initialized @(13081,0)
GPGPU-Sim uArch: Shader 12 finished CTA #1 (13091,0), 2 CTAs running
GPGPU-Sim uArch: core: 12, cta: 1 initialized @(13092,0)
GPGPU-Sim uArch: Shader 14 finished CTA #1 (13098,0), 2 CTAs running
GPGPU-Sim uArch: core: 14, cta: 1 initialized @(13099,0)
GPGPU-Sim PTX: 6900000 instructions simulated : ctaid=(118,0,0) tid=(352,0,0)
GPGPU-Sim uArch: Shader 7 finished CTA #1 (13140,0), 2 CTAs running
GPGPU-Sim uArch: core:  7, cta: 1 initialized @(13141,0)
GPGPU-Sim PTX: 7000000 instructions simulated : ctaid=(81,0,0) tid=(7,0,0)
GPGPU-Sim PTX: 7100000 instructions simulated : ctaid=(94,0,0) tid=(134,0,0)
GPGPU-Sim PTX: 7200000 instructions simulated : ctaid=(116,0,0) tid=(208,0,0)
GPGPU-Sim PTX: 7300000 instructions simulated : ctaid=(102,0,0) tid=(218,0,0)
GPGPU-Sim PTX: 7400000 instructions simulated : ctaid=(88,0,0) tid=(328,0,0)
GPGPU-Sim PTX: 7500000 instructions simulated : ctaid=(100,0,0) tid=(104,0,0)
GPGPU-Sim PTX: 7600000 instructions simulated : ctaid=(117,0,0) tid=(445,0,0)
GPGPU-Sim uArch: Shader 1 finished CTA #2 (14262,0), 2 CTAs running
GPGPU-Sim uArch: core:  1, cta: 2 initialized @(14263,0)
GPGPU-Sim PTX: 7700000 instructions simulated : ctaid=(99,0,0) tid=(385,0,0)
GPGPU-Sim uArch: Shader 5 finished CTA #2 (14362,0), 2 CTAs running
GPGPU-Sim uArch: core:  5, cta: 2 initialized @(14363,0)
GPGPU-Sim uArch: Shader 2 finished CTA #2 (14408,0), 2 CTAs running
GPGPU-Sim uArch: core:  2, cta: 2 initialized @(14409,0)
GPGPU-Sim PTX: 7800000 instructions simulated : ctaid=(103,0,0) tid=(33,0,0)
GPGPU-Sim uArch: Shader 13 finished CTA #2 (14490,0), 2 CTAs running
GPGPU-Sim uArch: core: 13, cta: 2 initialized @(14491,0)
GPGPU-Sim uArch: cycles simulated: 14500  inst.: 7474836 (ipc=515.5) sim_rate=679530 (inst/sec) elapsed = 0:0:00:11 / Sun Jan 27 01:55:52 2019
GPGPU-Sim uArch: Shader 3 finished CTA #2 (14507,0), 2 CTAs running
GPGPU-Sim uArch: core:  3, cta: 2 initialized @(14508,0)
GPGPU-Sim uArch: Shader 4 finished CTA #2 (14535,0), 2 CTAs running
GPGPU-Sim uArch: core:  4, cta: 2 initialized @(14536,0)
GPGPU-Sim uArch: Shader 6 finished CTA #2 (14545,0), 2 CTAs running
GPGPU-Sim uArch: core:  6, cta: 2 initialized @(14546,0)
GPGPU-Sim uArch: Shader 10 finished CTA #2 (14550,0), 2 CTAs running
GPGPU-Sim uArch: core: 10, cta: 2 initialized @(14551,0)
GPGPU-Sim uArch: Shader 9 finished CTA #2 (14554,0), 2 CTAs running
GPGPU-Sim uArch: core:  9, cta: 2 initialized @(14555,0)
GPGPU-Sim uArch: Shader 0 finished CTA #2 (14563,0), 2 CTAs running
GPGPU-Sim uArch: core:  0, cta: 2 initialized @(14564,0)
GPGPU-Sim uArch: Shader 11 finished CTA #2 (14576,0), 2 CTAs running
GPGPU-Sim uArch: core: 11, cta: 2 initialized @(14577,0)
GPGPU-Sim uArch: Shader 12 finished CTA #2 (14580,0), 2 CTAs running
GPGPU-Sim uArch: core: 12, cta: 2 initialized @(14581,0)
GPGPU-Sim uArch: Shader 8 finished CTA #2 (14600,0), 2 CTAs running
GPGPU-Sim uArch: core:  8, cta: 2 initialized @(14601,0)
GPGPU-Sim uArch: Shader 14 finished CTA #2 (14615,0), 2 CTAs running
GPGPU-Sim uArch: core: 14, cta: 2 initialized @(14616,0)
GPGPU-Sim uArch: Shader 7 finished CTA #2 (14628,0), 2 CTAs running
GPGPU-Sim uArch: core:  7, cta: 2 initialized @(14629,0)
GPGPU-Sim PTX: 7900000 instructions simulated : ctaid=(134,0,0) tid=(223,0,0)
GPGPU-Sim PTX: 8000000 instructions simulated : ctaid=(132,0,0) tid=(79,0,0)
GPGPU-Sim PTX: 8100000 instructions simulated : ctaid=(115,0,0) tid=(318,0,0)
GPGPU-Sim PTX: 8200000 instructions simulated : ctaid=(113,0,0) tid=(445,0,0)
GPGPU-Sim PTX: 8300000 instructions simulated : ctaid=(105,0,0) tid=(422,0,0)
GPGPU-Sim PTX: 8400000 instructions simulated : ctaid=(127,0,0) tid=(164,0,0)
GPGPU-Sim uArch: cycles simulated: 15500  inst.: 8064661 (ipc=520.3) sim_rate=672055 (inst/sec) elapsed = 0:0:00:12 / Sun Jan 27 01:55:53 2019
GPGPU-Sim PTX: 8500000 instructions simulated : ctaid=(118,0,0) tid=(226,0,0)
GPGPU-Sim PTX: 8600000 instructions simulated : ctaid=(114,0,0) tid=(438,0,0)
GPGPU-Sim PTX: 8700000 instructions simulated : ctaid=(117,0,0) tid=(336,0,0)
GPGPU-Sim PTX: 8800000 instructions simulated : ctaid=(92,0,0) tid=(264,0,0)
GPGPU-Sim PTX: 8900000 instructions simulated : ctaid=(100,0,0) tid=(163,0,0)
GPGPU-Sim PTX: 9000000 instructions simulated : ctaid=(122,0,0) tid=(203,0,0)
GPGPU-Sim uArch: Shader 3 finished CTA #0 (16485,0), 2 CTAs running
GPGPU-Sim uArch: core:  3, cta: 0 initialized @(16486,0)
GPGPU-Sim uArch: Shader 1 finished CTA #0 (16497,0), 2 CTAs running
GPGPU-Sim uArch: core:  1, cta: 0 initialized @(16498,0)
GPGPU-Sim uArch: cycles simulated: 16500  inst.: 8620373 (ipc=522.4) sim_rate=663105 (inst/sec) elapsed = 0:0:00:13 / Sun Jan 27 01:55:54 2019
GPGPU-Sim uArch: Shader 2 finished CTA #0 (16564,0), 2 CTAs running
GPGPU-Sim uArch: core:  2, cta: 0 initialized @(16565,0)
GPGPU-Sim uArch: Shader 4 finished CTA #0 (16592,0), 2 CTAs running
GPGPU-Sim uArch: core:  4, cta: 0 initialized @(16593,0)
GPGPU-Sim PTX: 9100000 instructions simulated : ctaid=(129,0,0) tid=(32,0,0)
GPGPU-Sim uArch: Shader 8 finished CTA #0 (16669,0), 2 CTAs running
GPGPU-Sim uArch: core:  8, cta: 0 initialized @(16670,0)
GPGPU-Sim uArch: Shader 11 finished CTA #0 (16736,0), 2 CTAs running
GPGPU-Sim uArch: core: 11, cta: 0 initialized @(16737,0)
GPGPU-Sim uArch: Shader 5 finished CTA #0 (16755,0), 2 CTAs running
GPGPU-Sim uArch: core:  5, cta: 0 initialized @(16756,0)
GPGPU-Sim uArch: Shader 10 finished CTA #0 (16763,0), 2 CTAs running
GPGPU-Sim uArch: core: 10, cta: 0 initialized @(16764,0)
GPGPU-Sim uArch: Shader 7 finished CTA #0 (16765,0), 2 CTAs running
GPGPU-Sim uArch: core:  7, cta: 0 initialized @(16766,0)
GPGPU-Sim uArch: Shader 13 finished CTA #0 (16771,0), 2 CTAs running
GPGPU-Sim uArch: core: 13, cta: 0 initialized @(16772,0)
GPGPU-Sim uArch: Shader 12 finished CTA #0 (16773,0), 2 CTAs running
GPGPU-Sim uArch: core: 12, cta: 0 initialized @(16774,0)
GPGPU-Sim uArch: Shader 0 finished CTA #0 (16793,0), 2 CTAs running
GPGPU-Sim uArch: core:  0, cta: 0 initialized @(16794,0)
GPGPU-Sim uArch: Shader 14 finished CTA #0 (16811,0), 2 CTAs running
GPGPU-Sim uArch: core: 14, cta: 0 initialized @(16812,0)
GPGPU-Sim PTX: 9200000 instructions simulated : ctaid=(132,0,0) tid=(463,0,0)
GPGPU-Sim uArch: Shader 6 finished CTA #0 (16858,0), 2 CTAs running
GPGPU-Sim uArch: core:  6, cta: 0 initialized @(16859,0)
GPGPU-Sim uArch: Shader 9 finished CTA #0 (16900,0), 2 CTAs running
GPGPU-Sim uArch: core:  9, cta: 0 initialized @(16901,0)
GPGPU-Sim PTX: 9300000 instructions simulated : ctaid=(109,0,0) tid=(358,0,0)
GPGPU-Sim PTX: 9400000 instructions simulated : ctaid=(121,0,0) tid=(101,0,0)
GPGPU-Sim PTX: 9500000 instructions simulated : ctaid=(128,0,0) tid=(219,0,0)
GPGPU-Sim PTX: 9600000 instructions simulated : ctaid=(127,0,0) tid=(165,0,0)
GPGPU-Sim PTX: 9700000 instructions simulated : ctaid=(126,0,0) tid=(233,0,0)
GPGPU-Sim PTX: 9800000 instructions simulated : ctaid=(120,0,0) tid=(76,0,0)
GPGPU-Sim PTX: 9900000 instructions simulated : ctaid=(127,0,0) tid=(403,0,0)
GPGPU-Sim uArch: cycles simulated: 18000  inst.: 9498498 (ipc=527.7) sim_rate=678464 (inst/sec) elapsed = 0:0:00:14 / Sun Jan 27 01:55:55 2019
GPGPU-Sim PTX: 10000000 instructions simulated : ctaid=(109,0,0) tid=(143,0,0)
GPGPU-Sim uArch: Shader 1 finished CTA #1 (18301,0), 2 CTAs running
GPGPU-Sim uArch: core:  1, cta: 1 initialized @(18302,0)
GPGPU-Sim PTX: 10100000 instructions simulated : ctaid=(111,0,0) tid=(145,0,0)
GPGPU-Sim uArch: Shader 2 finished CTA #1 (18396,0), 2 CTAs running
GPGPU-Sim uArch: core:  2, cta: 1 initialized @(18397,0)
GPGPU-Sim uArch: Shader 8 finished CTA #1 (18421,0), 2 CTAs running
GPGPU-Sim uArch: core:  8, cta: 1 initialized @(18422,0)
GPGPU-Sim uArch: Shader 14 finished CTA #1 (18506,0), 2 CTAs running
GPGPU-Sim uArch: core: 14, cta: 1 initialized @(18507,0)
GPGPU-Sim PTX: 10200000 instructions simulated : ctaid=(124,0,0) tid=(453,0,0)
GPGPU-Sim uArch: Shader 10 finished CTA #1 (18592,0), 2 CTAs running
GPGPU-Sim uArch: core: 10, cta: 1 initialized @(18593,0)
GPGPU-Sim uArch: Shader 4 finished CTA #1 (18602,0), 2 CTAs running
GPGPU-Sim uArch: core:  4, cta: 1 initialized @(18603,0)
GPGPU-Sim uArch: Shader 11 finished CTA #1 (18604,0), 2 CTAs running
GPGPU-Sim uArch: core: 11, cta: 1 initialized @(18605,0)
GPGPU-Sim uArch: Shader 5 finished CTA #1 (18623,0), 2 CTAs running
GPGPU-Sim uArch: core:  5, cta: 1 initialized @(18624,0)
GPGPU-Sim uArch: Shader 7 finished CTA #1 (18633,0), 2 CTAs running
GPGPU-Sim uArch: core:  7, cta: 1 initialized @(18634,0)
GPGPU-Sim uArch: Shader 3 finished CTA #1 (18640,0), 2 CTAs running
GPGPU-Sim uArch: core:  3, cta: 1 initialized @(18641,0)
GPGPU-Sim uArch: Shader 0 finished CTA #1 (18665,0), 2 CTAs running
GPGPU-Sim uArch: core:  0, cta: 1 initialized @(18666,0)
GPGPU-Sim uArch: Shader 13 finished CTA #1 (18680,0), 2 CTAs running
GPGPU-Sim uArch: core: 13, cta: 1 initialized @(18681,0)
GPGPU-Sim uArch: Shader 12 finished CTA #1 (18706,0), 2 CTAs running
GPGPU-Sim uArch: core: 12, cta: 1 initialized @(18707,0)
GPGPU-Sim PTX: 10300000 instructions simulated : ctaid=(158,0,0) tid=(123,0,0)
GPGPU-Sim uArch: Shader 6 finished CTA #1 (18753,0), 2 CTAs running
GPGPU-Sim uArch: core:  6, cta: 1 initialized @(18754,0)
GPGPU-Sim uArch: Shader 9 finished CTA #1 (18777,0), 2 CTAs running
GPGPU-Sim uArch: core:  9, cta: 1 initialized @(18778,0)
GPGPU-Sim PTX: 10400000 instructions simulated : ctaid=(160,0,0) tid=(298,0,0)
GPGPU-Sim uArch: cycles simulated: 19000  inst.: 10040246 (ipc=528.4) sim_rate=669349 (inst/sec) elapsed = 0:0:00:15 / Sun Jan 27 01:55:56 2019
GPGPU-Sim PTX: 10500000 instructions simulated : ctaid=(136,0,0) tid=(121,0,0)
GPGPU-Sim PTX: 10600000 instructions simulated : ctaid=(158,0,0) tid=(19,0,0)
GPGPU-Sim PTX: 10700000 instructions simulated : ctaid=(126,0,0) tid=(510,0,0)
GPGPU-Sim PTX: 10800000 instructions simulated : ctaid=(139,0,0) tid=(221,0,0)
GPGPU-Sim PTX: 10900000 instructions simulated : ctaid=(148,0,0) tid=(353,0,0)
GPGPU-Sim PTX: 11000000 instructions simulated : ctaid=(132,0,0) tid=(322,0,0)
GPGPU-Sim PTX: 11100000 instructions simulated : ctaid=(153,0,0) tid=(294,0,0)
GPGPU-Sim uArch: cycles simulated: 20000  inst.: 10664513 (ipc=533.2) sim_rate=666532 (inst/sec) elapsed = 0:0:00:16 / Sun Jan 27 01:55:57 2019
GPGPU-Sim PTX: 11200000 instructions simulated : ctaid=(156,0,0) tid=(270,0,0)
GPGPU-Sim uArch: Shader 2 finished CTA #2 (20135,0), 2 CTAs running
GPGPU-Sim uArch: core:  2, cta: 2 initialized @(20136,0)
GPGPU-Sim uArch: Shader 5 finished CTA #2 (20143,0), 2 CTAs running
GPGPU-Sim uArch: core:  5, cta: 2 initialized @(20144,0)
GPGPU-Sim uArch: Shader 6 finished CTA #2 (20219,0), 2 CTAs running
GPGPU-Sim uArch: core:  6, cta: 2 initialized @(20220,0)
GPGPU-Sim uArch: Shader 1 finished CTA #2 (20301,0), 2 CTAs running
GPGPU-Sim uArch: core:  1, cta: 2 initialized @(20302,0)
GPGPU-Sim PTX: 11300000 instructions simulated : ctaid=(142,0,0) tid=(84,0,0)
GPGPU-Sim uArch: Shader 4 finished CTA #2 (20347,0), 2 CTAs running
GPGPU-Sim uArch: core:  4, cta: 2 initialized @(20348,0)
GPGPU-Sim uArch: Shader 3 finished CTA #2 (20357,0), 2 CTAs running
GPGPU-Sim uArch: core:  3, cta: 2 initialized @(20358,0)
GPGPU-Sim uArch: Shader 8 finished CTA #2 (20378,0), 2 CTAs running
GPGPU-Sim uArch: core:  8, cta: 2 initialized @(20379,0)
GPGPU-Sim uArch: Shader 9 finished CTA #2 (20391,0), 2 CTAs running
GPGPU-Sim uArch: core:  9, cta: 2 initialized @(20392,0)
GPGPU-Sim uArch: Shader 7 finished CTA #2 (20392,0), 2 CTAs running
GPGPU-Sim uArch: core:  7, cta: 2 initialized @(20393,0)
GPGPU-Sim uArch: Shader 10 finished CTA #2 (20400,0), 2 CTAs running
GPGPU-Sim uArch: core: 10, cta: 2 initialized @(20401,0)
GPGPU-Sim uArch: Shader 13 finished CTA #2 (20410,0), 2 CTAs running
GPGPU-Sim uArch: core: 13, cta: 2 initialized @(20411,0)
GPGPU-Sim uArch: Shader 0 finished CTA #2 (20435,0), 2 CTAs running
GPGPU-Sim uArch: core:  0, cta: 2 initialized @(20436,0)
GPGPU-Sim uArch: Shader 11 finished CTA #2 (20474,0), 2 CTAs running
GPGPU-Sim uArch: core: 11, cta: 2 initialized @(20475,0)
GPGPU-Sim uArch: Shader 12 finished CTA #2 (20477,0), 2 CTAs running
GPGPU-Sim uArch: core: 12, cta: 2 initialized @(20478,0)
GPGPU-Sim PTX: 11400000 instructions simulated : ctaid=(141,0,0) tid=(486,0,0)
GPGPU-Sim uArch: Shader 14 finished CTA #2 (20568,0), 2 CTAs running
GPGPU-Sim uArch: core: 14, cta: 2 initialized @(20569,0)
GPGPU-Sim PTX: 11500000 instructions simulated : ctaid=(149,0,0) tid=(426,0,0)
GPGPU-Sim PTX: 11600000 instructions simulated : ctaid=(161,0,0) tid=(146,0,0)
GPGPU-Sim PTX: 11700000 instructions simulated : ctaid=(141,0,0) tid=(60,0,0)
GPGPU-Sim uArch: cycles simulated: 21000  inst.: 11220924 (ipc=534.3) sim_rate=660054 (inst/sec) elapsed = 0:0:00:17 / Sun Jan 27 01:55:58 2019
GPGPU-Sim PTX: 11800000 instructions simulated : ctaid=(143,0,0) tid=(174,0,0)
GPGPU-Sim PTX: 11900000 instructions simulated : ctaid=(151,0,0) tid=(433,0,0)
GPGPU-Sim PTX: 12000000 instructions simulated : ctaid=(173,0,0) tid=(467,0,0)
GPGPU-Sim PTX: 12100000 instructions simulated : ctaid=(164,0,0) tid=(300,0,0)
GPGPU-Sim PTX: 12200000 instructions simulated : ctaid=(142,0,0) tid=(304,0,0)
GPGPU-Sim PTX: 12300000 instructions simulated : ctaid=(163,0,0) tid=(355,0,0)
GPGPU-Sim uArch: Shader 3 finished CTA #0 (22137,0), 2 CTAs running
GPGPU-Sim uArch: core:  3, cta: 0 initialized @(22138,0)
GPGPU-Sim PTX: 12400000 instructions simulated : ctaid=(147,0,0) tid=(296,0,0)
GPGPU-Sim uArch: Shader 2 finished CTA #0 (22164,0), 2 CTAs running
GPGPU-Sim uArch: core:  2, cta: 0 initialized @(22165,0)
GPGPU-Sim uArch: Shader 11 finished CTA #0 (22205,0), 2 CTAs running
GPGPU-Sim uArch: core: 11, cta: 0 initialized @(22206,0)
GPGPU-Sim uArch: Shader 1 finished CTA #0 (22222,0), 2 CTAs running
GPGPU-Sim uArch: Shader 4 finished CTA #0 (22222,0), 2 CTAs running
GPGPU-Sim uArch: core:  1, cta: 0 initialized @(22223,0)
GPGPU-Sim uArch: core:  4, cta: 0 initialized @(22223,0)
GPGPU-Sim uArch: Shader 5 finished CTA #0 (22240,0), 2 CTAs running
GPGPU-Sim uArch: core:  5, cta: 0 initialized @(22241,0)
GPGPU-Sim uArch: Shader 8 finished CTA #0 (22248,0), 2 CTAs running
GPGPU-Sim uArch: core:  8, cta: 0 initialized @(22249,0)
GPGPU-Sim uArch: Shader 12 finished CTA #0 (22261,0), 2 CTAs running
GPGPU-Sim uArch: core: 12, cta: 0 initialized @(22262,0)
GPGPU-Sim uArch: Shader 7 finished CTA #0 (22325,0), 2 CTAs running
GPGPU-Sim uArch: core:  7, cta: 0 initialized @(22326,0)
GPGPU-Sim PTX: 12500000 instructions simulated : ctaid=(152,0,0) tid=(54,0,0)
GPGPU-Sim uArch: Shader 13 finished CTA #0 (22347,0), 2 CTAs running
GPGPU-Sim uArch: core: 13, cta: 0 initialized @(22348,0)
GPGPU-Sim uArch: Shader 9 finished CTA #0 (22385,0), 2 CTAs running
GPGPU-Sim uArch: core:  9, cta: 0 initialized @(22386,0)
GPGPU-Sim uArch: Shader 0 finished CTA #0 (22402,0), 2 CTAs running
GPGPU-Sim uArch: core:  0, cta: 0 initialized @(22403,0)
GPGPU-Sim uArch: Shader 10 finished CTA #0 (22424,0), 2 CTAs running
GPGPU-Sim uArch: core: 10, cta: 0 initialized @(22425,0)
GPGPU-Sim uArch: Shader 6 finished CTA #0 (22430,0), 2 CTAs running
GPGPU-Sim uArch: core:  6, cta: 0 initialized @(22431,0)
GPGPU-Sim uArch: cycles simulated: 22500  inst.: 12064188 (ipc=536.2) sim_rate=670232 (inst/sec) elapsed = 0:0:00:18 / Sun Jan 27 01:55:59 2019
GPGPU-Sim PTX: 12600000 instructions simulated : ctaid=(180,0,0) tid=(48,0,0)
GPGPU-Sim uArch: Shader 14 finished CTA #0 (22508,0), 2 CTAs running
GPGPU-Sim uArch: core: 14, cta: 0 initialized @(22509,0)
GPGPU-Sim PTX: 12700000 instructions simulated : ctaid=(158,0,0) tid=(470,0,0)
GPGPU-Sim PTX: 12800000 instructions simulated : ctaid=(169,0,0) tid=(152,0,0)
GPGPU-Sim PTX: 12900000 instructions simulated : ctaid=(173,0,0) tid=(286,0,0)
GPGPU-Sim PTX: 13000000 instructions simulated : ctaid=(171,0,0) tid=(190,0,0)
GPGPU-Sim PTX: 13100000 instructions simulated : ctaid=(184,0,0) tid=(365,0,0)
GPGPU-Sim PTX: 13200000 instructions simulated : ctaid=(161,0,0) tid=(145,0,0)
GPGPU-Sim uArch: cycles simulated: 23500  inst.: 12669349 (ipc=539.1) sim_rate=666807 (inst/sec) elapsed = 0:0:00:19 / Sun Jan 27 01:56:00 2019
GPGPU-Sim PTX: 13300000 instructions simulated : ctaid=(187,0,0) tid=(200,0,0)
GPGPU-Sim PTX: 13400000 instructions simulated : ctaid=(151,0,0) tid=(5,0,0)
GPGPU-Sim PTX: 13500000 instructions simulated : ctaid=(190,0,0) tid=(417,0,0)
GPGPU-Sim uArch: Shader 2 finished CTA #1 (23980,0), 2 CTAs running
GPGPU-Sim uArch: core:  2, cta: 1 initialized @(23981,0)
GPGPU-Sim uArch: Shader 8 finished CTA #1 (24043,0), 2 CTAs running
GPGPU-Sim uArch: core:  8, cta: 1 initialized @(24044,0)
GPGPU-Sim uArch: Shader 1 finished CTA #1 (24046,0), 2 CTAs running
GPGPU-Sim uArch: core:  1, cta: 1 initialized @(24047,0)
GPGPU-Sim uArch: Shader 11 finished CTA #1 (24099,0), 2 CTAs running
GPGPU-Sim uArch: core: 11, cta: 1 initialized @(24100,0)
GPGPU-Sim PTX: 13600000 instructions simulated : ctaid=(192,0,0) tid=(388,0,0)
GPGPU-Sim uArch: Shader 3 finished CTA #1 (24188,0), 2 CTAs running
GPGPU-Sim uArch: core:  3, cta: 1 initialized @(24189,0)
GPGPU-Sim uArch: Shader 10 finished CTA #1 (24200,0), 2 CTAs running
GPGPU-Sim uArch: core: 10, cta: 1 initialized @(24201,0)
GPGPU-Sim uArch: Shader 5 finished CTA #1 (24224,0), 2 CTAs running
GPGPU-Sim uArch: core:  5, cta: 1 initialized @(24225,0)
GPGPU-Sim uArch: Shader 14 finished CTA #1 (24275,0), 2 CTAs running
GPGPU-Sim uArch: core: 14, cta: 1 initialized @(24276,0)
GPGPU-Sim uArch: Shader 12 finished CTA #1 (24287,0), 2 CTAs running
GPGPU-Sim uArch: core: 12, cta: 1 initialized @(24288,0)
GPGPU-Sim uArch: Shader 9 finished CTA #1 (24308,0), 2 CTAs running
GPGPU-Sim uArch: core:  9, cta: 1 initialized @(24309,0)
GPGPU-Sim uArch: Shader 0 finished CTA #1 (24315,0), 2 CTAs running
GPGPU-Sim uArch: core:  0, cta: 1 initialized @(24316,0)
GPGPU-Sim uArch: Shader 6 finished CTA #1 (24316,0), 2 CTAs running
GPGPU-Sim uArch: core:  6, cta: 1 initialized @(24317,0)
GPGPU-Sim uArch: Shader 4 finished CTA #1 (24327,0), 2 CTAs running
GPGPU-Sim uArch: core:  4, cta: 1 initialized @(24328,0)
GPGPU-Sim PTX: 13700000 instructions simulated : ctaid=(185,0,0) tid=(439,0,0)
GPGPU-Sim uArch: Shader 13 finished CTA #1 (24364,0), 2 CTAs running
GPGPU-Sim uArch: core: 13, cta: 1 initialized @(24365,0)
GPGPU-Sim uArch: Shader 7 finished CTA #1 (24368,0), 2 CTAs running
GPGPU-Sim uArch: core:  7, cta: 1 initialized @(24369,0)
GPGPU-Sim uArch: cycles simulated: 24500  inst.: 13212783 (ipc=539.3) sim_rate=660639 (inst/sec) elapsed = 0:0:00:20 / Sun Jan 27 01:56:01 2019
GPGPU-Sim PTX: 13800000 instructions simulated : ctaid=(184,0,0) tid=(32,0,0)
GPGPU-Sim PTX: 13900000 instructions simulated : ctaid=(170,0,0) tid=(318,0,0)
GPGPU-Sim PTX: 14000000 instructions simulated : ctaid=(183,0,0) tid=(312,0,0)
GPGPU-Sim PTX: 14100000 instructions simulated : ctaid=(200,0,0) tid=(107,0,0)
GPGPU-Sim PTX: 14200000 instructions simulated : ctaid=(188,0,0) tid=(73,0,0)
GPGPU-Sim PTX: 14300000 instructions simulated : ctaid=(176,0,0) tid=(362,0,0)
GPGPU-Sim PTX: 14400000 instructions simulated : ctaid=(165,0,0) tid=(447,0,0)
GPGPU-Sim uArch: cycles simulated: 25500  inst.: 13827660 (ipc=542.3) sim_rate=658460 (inst/sec) elapsed = 0:0:00:21 / Sun Jan 27 01:56:02 2019
GPGPU-Sim PTX: 14500000 instructions simulated : ctaid=(173,0,0) tid=(203,0,0)
GPGPU-Sim PTX: 14600000 instructions simulated : ctaid=(175,0,0) tid=(97,0,0)
GPGPU-Sim uArch: Shader 1 finished CTA #2 (25873,0), 2 CTAs running
GPGPU-Sim uArch: core:  1, cta: 2 initialized @(25874,0)
GPGPU-Sim PTX: 14700000 instructions simulated : ctaid=(190,0,0) tid=(88,0,0)
GPGPU-Sim uArch: Shader 8 finished CTA #2 (25997,0), 2 CTAs running
GPGPU-Sim uArch: core:  8, cta: 2 initialized @(25998,0)
GPGPU-Sim uArch: Shader 2 finished CTA #2 (26011,0), 2 CTAs running
GPGPU-Sim uArch: core:  2, cta: 2 initialized @(26012,0)
GPGPU-Sim uArch: Shader 3 finished CTA #2 (26013,0), 2 CTAs running
GPGPU-Sim uArch: core:  3, cta: 2 initialized @(26014,0)
GPGPU-Sim uArch: Shader 6 finished CTA #2 (26016,0), 2 CTAs running
GPGPU-Sim uArch: core:  6, cta: 2 initialized @(26017,0)
GPGPU-Sim uArch: Shader 10 finished CTA #2 (26026,0), 2 CTAs running
GPGPU-Sim uArch: core: 10, cta: 2 initialized @(26027,0)
GPGPU-Sim uArch: Shader 7 finished CTA #2 (26033,0), 2 CTAs running
GPGPU-Sim uArch: core:  7, cta: 2 initialized @(26034,0)
GPGPU-Sim uArch: Shader 5 finished CTA #2 (26036,0), 2 CTAs running
GPGPU-Sim uArch: core:  5, cta: 2 initialized @(26037,0)
GPGPU-Sim uArch: Shader 4 finished CTA #2 (26056,0), 2 CTAs running
GPGPU-Sim uArch: core:  4, cta: 2 initialized @(26057,0)
GPGPU-Sim uArch: Shader 9 finished CTA #2 (26076,0), 2 CTAs running
GPGPU-Sim uArch: core:  9, cta: 2 initialized @(26077,0)
GPGPU-Sim uArch: Shader 12 finished CTA #2 (26099,0), 2 CTAs running
GPGPU-Sim uArch: core: 12, cta: 2 initialized @(26100,0)
GPGPU-Sim uArch: Shader 13 finished CTA #2 (26110,0), 2 CTAs running
GPGPU-Sim uArch: core: 13, cta: 2 initialized @(26111,0)
GPGPU-Sim uArch: Shader 11 finished CTA #2 (26169,0), 2 CTAs running
GPGPU-Sim uArch: core: 11, cta: 2 initialized @(26170,0)
GPGPU-Sim PTX: 14800000 instructions simulated : ctaid=(220,0,0) tid=(164,0,0)
GPGPU-Sim uArch: Shader 0 finished CTA #2 (26250,0), 2 CTAs running
GPGPU-Sim uArch: core:  0, cta: 2 initialized @(26251,0)
GPGPU-Sim uArch: Shader 14 finished CTA #2 (26267,0), 2 CTAs running
GPGPU-Sim uArch: core: 14, cta: 2 initialized @(26268,0)
GPGPU-Sim PTX: 14900000 instructions simulated : ctaid=(204,0,0) tid=(187,0,0)
GPGPU-Sim PTX: 15000000 instructions simulated : ctaid=(185,0,0) tid=(263,0,0)
GPGPU-Sim uArch: cycles simulated: 26500  inst.: 14372088 (ipc=542.3) sim_rate=653276 (inst/sec) elapsed = 0:0:00:22 / Sun Jan 27 01:56:03 2019
GPGPU-Sim PTX: 15100000 instructions simulated : ctaid=(222,0,0) tid=(227,0,0)
GPGPU-Sim PTX: 15200000 instructions simulated : ctaid=(185,0,0) tid=(96,0,0)
GPGPU-Sim PTX: 15300000 instructions simulated : ctaid=(193,0,0) tid=(190,0,0)
GPGPU-Sim PTX: 15400000 instructions simulated : ctaid=(183,0,0) tid=(440,0,0)
GPGPU-Sim PTX: 15500000 instructions simulated : ctaid=(193,0,0) tid=(318,0,0)
GPGPU-Sim PTX: 15600000 instructions simulated : ctaid=(195,0,0) tid=(236,0,0)
GPGPU-Sim uArch: cycles simulated: 27500  inst.: 14988525 (ipc=545.0) sim_rate=651675 (inst/sec) elapsed = 0:0:00:23 / Sun Jan 27 01:56:04 2019
GPGPU-Sim PTX: 15700000 instructions simulated : ctaid=(192,0,0) tid=(183,0,0)
GPGPU-Sim uArch: Shader 2 finished CTA #0 (27677,0), 2 CTAs running
GPGPU-Sim uArch: core:  2, cta: 0 initialized @(27678,0)
GPGPU-Sim PTX: 15800000 instructions simulated : ctaid=(201,0,0) tid=(308,0,0)
GPGPU-Sim uArch: Shader 3 finished CTA #0 (27793,0), 2 CTAs running
GPGPU-Sim uArch: Shader 8 finished CTA #0 (27793,0), 2 CTAs running
GPGPU-Sim uArch: core:  3, cta: 0 initialized @(27794,0)
GPGPU-Sim uArch: core:  8, cta: 0 initialized @(27794,0)
GPGPU-Sim uArch: Shader 5 finished CTA #0 (27824,0), 2 CTAs running
GPGPU-Sim uArch: core:  5, cta: 0 initialized @(27825,0)
GPGPU-Sim uArch: Shader 11 finished CTA #0 (27885,0), 2 CTAs running
GPGPU-Sim uArch: core: 11, cta: 0 initialized @(27886,0)
GPGPU-Sim uArch: Shader 4 finished CTA #0 (27892,0), 2 CTAs running
GPGPU-Sim uArch: core:  4, cta: 0 initialized @(27893,0)
GPGPU-Sim uArch: Shader 12 finished CTA #0 (27924,0), 2 CTAs running
GPGPU-Sim uArch: core: 12, cta: 0 initialized @(27925,0)
GPGPU-Sim uArch: Shader 7 finished CTA #0 (27925,0), 2 CTAs running
GPGPU-Sim uArch: core:  7, cta: 0 initialized @(27926,0)
GPGPU-Sim uArch: Shader 1 finished CTA #0 (27940,0), 2 CTAs running
GPGPU-Sim uArch: core:  1, cta: 0 initialized @(27941,0)
GPGPU-Sim uArch: Shader 6 finished CTA #0 (27994,0), 2 CTAs running
GPGPU-Sim uArch: core:  6, cta: 0 initialized @(27995,0)
GPGPU-Sim PTX: 15900000 instructions simulated : ctaid=(211,0,0) tid=(263,0,0)
GPGPU-Sim uArch: Shader 13 finished CTA #0 (28067,0), 2 CTAs running
GPGPU-Sim uArch: core: 13, cta: 0 initialized @(28068,0)
GPGPU-Sim uArch: Shader 9 finished CTA #0 (28088,0), 2 CTAs running
GPGPU-Sim uArch: core:  9, cta: 0 initialized @(28089,0)
GPGPU-Sim uArch: Shader 0 finished CTA #0 (28104,0), 2 CTAs running
GPGPU-Sim uArch: core:  0, cta: 0 initialized @(28105,0)
GPGPU-Sim uArch: Shader 10 finished CTA #0 (28108,0), 2 CTAs running
GPGPU-Sim uArch: core: 10, cta: 0 initialized @(28109,0)
GPGPU-Sim uArch: Shader 14 finished CTA #0 (28127,0), 2 CTAs running
GPGPU-Sim uArch: core: 14, cta: 0 initialized @(28128,0)
GPGPU-Sim PTX: 16000000 instructions simulated : ctaid=(225,0,0) tid=(212,0,0)
GPGPU-Sim PTX: 16100000 instructions simulated : ctaid=(235,0,0) tid=(148,0,0)
GPGPU-Sim PTX: 16200000 instructions simulated : ctaid=(222,0,0) tid=(369,0,0)
GPGPU-Sim PTX: 16300000 instructions simulated : ctaid=(239,0,0) tid=(231,0,0)
GPGPU-Sim PTX: 16400000 instructions simulated : ctaid=(219,0,0) tid=(170,0,0)
GPGPU-Sim PTX: 16500000 instructions simulated : ctaid=(219,0,0) tid=(300,0,0)
GPGPU-Sim uArch: cycles simulated: 29000  inst.: 15839830 (ipc=546.2) sim_rate=659992 (inst/sec) elapsed = 0:0:00:24 / Sun Jan 27 01:56:05 2019
GPGPU-Sim PTX: 16600000 instructions simulated : ctaid=(223,0,0) tid=(16,0,0)
GPGPU-Sim PTX: 16700000 instructions simulated : ctaid=(230,0,0) tid=(497,0,0)
GPGPU-Sim PTX: 16800000 instructions simulated : ctaid=(232,0,0) tid=(81,0,0)
GPGPU-Sim PTX: 16900000 instructions simulated : ctaid=(220,0,0) tid=(98,0,0)
GPGPU-Sim uArch: Shader 1 finished CTA #1 (29631,0), 2 CTAs running
GPGPU-Sim uArch: core:  1, cta: 1 initialized @(29632,0)
GPGPU-Sim uArch: Shader 11 finished CTA #1 (29674,0), 2 CTAs running
GPGPU-Sim uArch: core: 11, cta: 1 initialized @(29675,0)
GPGPU-Sim uArch: Shader 2 finished CTA #1 (29769,0), 2 CTAs running
GPGPU-Sim uArch: core:  2, cta: 1 initialized @(29770,0)
GPGPU-Sim uArch: Shader 6 finished CTA #1 (29785,0), 2 CTAs running
GPGPU-Sim uArch: core:  6, cta: 1 initialized @(29786,0)
GPGPU-Sim PTX: 17000000 instructions simulated : ctaid=(211,0,0) tid=(457,0,0)
GPGPU-Sim uArch: Shader 10 finished CTA #1 (29824,0), 2 CTAs running
GPGPU-Sim uArch: core: 10, cta: 1 initialized @(29825,0)
GPGPU-Sim uArch: Shader 5 finished CTA #1 (29827,0), 2 CTAs running
GPGPU-Sim uArch: core:  5, cta: 1 initialized @(29828,0)
GPGPU-Sim uArch: Shader 8 finished CTA #1 (29876,0), 2 CTAs running
GPGPU-Sim uArch: core:  8, cta: 1 initialized @(29877,0)
GPGPU-Sim uArch: Shader 3 finished CTA #1 (29899,0), 2 CTAs running
GPGPU-Sim uArch: core:  3, cta: 1 initialized @(29900,0)
GPGPU-Sim uArch: Shader 12 finished CTA #1 (29923,0), 2 CTAs running
GPGPU-Sim uArch: core: 12, cta: 1 initialized @(29924,0)
GPGPU-Sim uArch: Shader 14 finished CTA #1 (29925,0), 2 CTAs running
GPGPU-Sim uArch: core: 14, cta: 1 initialized @(29926,0)
GPGPU-Sim uArch: Shader 0 finished CTA #1 (29979,0), 2 CTAs running
GPGPU-Sim uArch: core:  0, cta: 1 initialized @(29980,0)
GPGPU-Sim uArch: Shader 7 finished CTA #1 (29982,0), 2 CTAs running
GPGPU-Sim uArch: core:  7, cta: 1 initialized @(29983,0)
GPGPU-Sim uArch: Shader 13 finished CTA #1 (29991,0), 2 CTAs running
GPGPU-Sim uArch: core: 13, cta: 1 initialized @(29992,0)
GPGPU-Sim uArch: cycles simulated: 30000  inst.: 16377640 (ipc=545.9) sim_rate=655105 (inst/sec) elapsed = 0:0:00:25 / Sun Jan 27 01:56:06 2019
GPGPU-Sim PTX: 17100000 instructions simulated : ctaid=(218,0,0) tid=(162,0,0)
GPGPU-Sim uArch: Shader 4 finished CTA #1 (30017,0), 2 CTAs running
GPGPU-Sim uArch: core:  4, cta: 1 initialized @(30018,0)
GPGPU-Sim uArch: Shader 9 finished CTA #1 (30026,0), 2 CTAs running
GPGPU-Sim uArch: core:  9, cta: 1 initialized @(30027,0)
GPGPU-Sim PTX: 17200000 instructions simulated : ctaid=(246,0,0) tid=(398,0,0)
GPGPU-Sim PTX: 17300000 instructions simulated : ctaid=(226,0,0) tid=(98,0,0)
GPGPU-Sim PTX: 17400000 instructions simulated : ctaid=(246,0,0) tid=(446,0,0)
GPGPU-Sim PTX: 17500000 instructions simulated : ctaid=(242,0,0) tid=(43,0,0)
GPGPU-Sim PTX: 17600000 instructions simulated : ctaid=(247,0,0) tid=(344,0,0)
GPGPU-Sim PTX: 17700000 instructions simulated : ctaid=(212,0,0) tid=(470,0,0)
GPGPU-Sim uArch: cycles simulated: 31000  inst.: 17002497 (ipc=548.5) sim_rate=653942 (inst/sec) elapsed = 0:0:00:26 / Sun Jan 27 01:56:07 2019
GPGPU-Sim PTX: 17800000 instructions simulated : ctaid=(246,0,0) tid=(355,0,0)
GPGPU-Sim PTX: 17900000 instructions simulated : ctaid=(234,0,0) tid=(207,0,0)
GPGPU-Sim PTX: 18000000 instructions simulated : ctaid=(250,0,0) tid=(73,0,0)
GPGPU-Sim uArch: Shader 2 finished CTA #2 (31517,0), 2 CTAs running
GPGPU-Sim uArch: core:  2, cta: 2 initialized @(31518,0)
GPGPU-Sim uArch: Shader 1 finished CTA #2 (31534,0), 2 CTAs running
GPGPU-Sim uArch: core:  1, cta: 2 initialized @(31535,0)
GPGPU-Sim uArch: Shader 5 finished CTA #2 (31594,0), 2 CTAs running
GPGPU-Sim uArch: core:  5, cta: 2 initialized @(31595,0)
GPGPU-Sim uArch: Shader 3 finished CTA #2 (31619,0), 2 CTAs running
GPGPU-Sim uArch: core:  3, cta: 2 initialized @(31620,0)
GPGPU-Sim PTX: 18100000 instructions simulated : ctaid=(227,0,0) tid=(132,0,0)
GPGPU-Sim uArch: Shader 8 finished CTA #2 (31651,0), 2 CTAs running
GPGPU-Sim uArch: core:  8, cta: 2 initialized @(31652,0)
GPGPU-Sim uArch: Shader 12 finished CTA #2 (31691,0), 2 CTAs running
GPGPU-Sim uArch: core: 12, cta: 2 initialized @(31692,0)
GPGPU-Sim uArch: Shader 6 finished CTA #2 (31730,0), 2 CTAs running
GPGPU-Sim uArch: core:  6, cta: 2 initialized @(31731,0)
GPGPU-Sim uArch: Shader 4 finished CTA #2 (31772,0), 2 CTAs running
GPGPU-Sim uArch: core:  4, cta: 2 initialized @(31773,0)
GPGPU-Sim uArch: Shader 11 finished CTA #2 (31778,0), 2 CTAs running
GPGPU-Sim uArch: core: 11, cta: 2 initialized @(31779,0)
GPGPU-Sim uArch: Shader 0 finished CTA #2 (31779,0), 2 CTAs running
GPGPU-Sim uArch: core:  0, cta: 2 initialized @(31780,0)
GPGPU-Sim uArch: Shader 7 finished CTA #2 (31796,0), 2 CTAs running
GPGPU-Sim uArch: core:  7, cta: 2 initialized @(31797,0)
GPGPU-Sim uArch: Shader 13 finished CTA #2 (31810,0), 2 CTAs running
GPGPU-Sim uArch: core: 13, cta: 2 initialized @(31811,0)
GPGPU-Sim PTX: 18200000 instructions simulated : ctaid=(235,0,0) tid=(160,0,0)
GPGPU-Sim uArch: Shader 9 finished CTA #2 (31853,0), 2 CTAs running
GPGPU-Sim uArch: Shader 10 finished CTA #2 (31853,0), 2 CTAs running
GPGPU-Sim uArch: core:  9, cta: 2 initialized @(31854,0)
GPGPU-Sim uArch: core: 10, cta: 2 initialized @(31854,0)
GPGPU-Sim PTX: 18300000 instructions simulated : ctaid=(255,0,0) tid=(428,0,0)
GPGPU-Sim uArch: cycles simulated: 32000  inst.: 17544448 (ipc=548.3) sim_rate=649794 (inst/sec) elapsed = 0:0:00:27 / Sun Jan 27 01:56:08 2019
GPGPU-Sim uArch: Shader 14 finished CTA #2 (32107,0), 2 CTAs running
GPGPU-Sim uArch: core: 14, cta: 2 initialized @(32108,0)
GPGPU-Sim PTX: 18400000 instructions simulated : ctaid=(238,0,0) tid=(156,0,0)
GPGPU-Sim PTX: 18500000 instructions simulated : ctaid=(252,0,0) tid=(442,0,0)
GPGPU-Sim PTX: 18600000 instructions simulated : ctaid=(252,0,0) tid=(406,0,0)
GPGPU-Sim PTX: 18700000 instructions simulated : ctaid=(226,0,0) tid=(465,0,0)
GPGPU-Sim PTX: 18800000 instructions simulated : ctaid=(239,0,0) tid=(118,0,0)
GPGPU-Sim PTX: 18900000 instructions simulated : ctaid=(232,0,0) tid=(364,0,0)
GPGPU-Sim uArch: cycles simulated: 33000  inst.: 18160210 (ipc=550.3) sim_rate=648578 (inst/sec) elapsed = 0:0:00:28 / Sun Jan 27 01:56:09 2019
GPGPU-Sim PTX: 19000000 instructions simulated : ctaid=(236,0,0) tid=(272,0,0)
GPGPU-Sim PTX: 19100000 instructions simulated : ctaid=(239,0,0) tid=(78,0,0)
GPGPU-Sim PTX: 19200000 instructions simulated : ctaid=(255,0,0) tid=(37,0,0)
GPGPU-Sim uArch: Shader 8 finished CTA #0 (33461,0), 2 CTAs running
GPGPU-Sim uArch: core:  8, cta: 0 initialized @(33462,0)
GPGPU-Sim uArch: Shader 2 finished CTA #0 (33495,0), 2 CTAs running
GPGPU-Sim uArch: core:  2, cta: 0 initialized @(33496,0)
GPGPU-Sim uArch: Shader 5 finished CTA #0 (33504,0), 2 CTAs running
GPGPU-Sim uArch: core:  5, cta: 0 initialized @(33505,0)
GPGPU-Sim uArch: Shader 11 finished CTA #0 (33533,0), 2 CTAs running
GPGPU-Sim uArch: core: 11, cta: 0 initialized @(33534,0)
GPGPU-Sim uArch: Shader 4 finished CTA #0 (33542,0), 2 CTAs running
GPGPU-Sim uArch: core:  4, cta: 0 initialized @(33543,0)
GPGPU-Sim uArch: Shader 3 finished CTA #0 (33549,0), 2 CTAs running
GPGPU-Sim uArch: core:  3, cta: 0 initialized @(33550,0)
GPGPU-Sim uArch: Shader 12 finished CTA #0 (33577,0), 2 CTAs running
GPGPU-Sim uArch: core: 12, cta: 0 initialized @(33578,0)
GPGPU-Sim uArch: Shader 7 finished CTA #0 (33590,0), 2 CTAs running
GPGPU-Sim uArch: core:  7, cta: 0 initialized @(33591,0)
GPGPU-Sim uArch: Shader 1 finished CTA #0 (33626,0), 2 CTAs running
GPGPU-Sim uArch: core:  1, cta: 0 initialized @(33627,0)
GPGPU-Sim PTX: 19300000 instructions simulated : ctaid=(258,0,0) tid=(71,0,0)
GPGPU-Sim uArch: Shader 0 finished CTA #0 (33683,0), 2 CTAs running
GPGPU-Sim uArch: core:  0, cta: 0 initialized @(33684,0)
GPGPU-Sim uArch: Shader 14 finished CTA #0 (33728,0), 2 CTAs running
GPGPU-Sim uArch: core: 14, cta: 0 initialized @(33729,0)
GPGPU-Sim uArch: Shader 6 finished CTA #0 (33790,0), 2 CTAs running
GPGPU-Sim uArch: core:  6, cta: 0 initialized @(33791,0)
GPGPU-Sim uArch: Shader 13 finished CTA #0 (33795,0), 2 CTAs running
GPGPU-Sim uArch: core: 13, cta: 0 initialized @(33796,0)
GPGPU-Sim uArch: Shader 9 finished CTA #0 (33797,0), 2 CTAs running
GPGPU-Sim uArch: core:  9, cta: 0 initialized @(33798,0)
GPGPU-Sim PTX: 19400000 instructions simulated : ctaid=(241,0,0) tid=(250,0,0)
GPGPU-Sim uArch: Shader 10 finished CTA #0 (33813,0), 2 CTAs running
GPGPU-Sim uArch: core: 10, cta: 0 initialized @(33814,0)
GPGPU-Sim PTX: 19500000 instructions simulated : ctaid=(264,0,0) tid=(186,0,0)
GPGPU-Sim uArch: cycles simulated: 34000  inst.: 18718773 (ipc=550.6) sim_rate=645474 (inst/sec) elapsed = 0:0:00:29 / Sun Jan 27 01:56:10 2019
GPGPU-Sim PTX: 19600000 instructions simulated : ctaid=(269,0,0) tid=(241,0,0)
GPGPU-Sim PTX: 19700000 instructions simulated : ctaid=(261,0,0) tid=(128,0,0)
GPGPU-Sim PTX: 19800000 instructions simulated : ctaid=(255,0,0) tid=(499,0,0)
GPGPU-Sim PTX: 19900000 instructions simulated : ctaid=(284,0,0) tid=(40,0,0)
GPGPU-Sim PTX: 20000000 instructions simulated : ctaid=(246,0,0) tid=(213,0,0)
GPGPU-Sim PTX: 20100000 instructions simulated : ctaid=(247,0,0) tid=(313,0,0)
GPGPU-Sim uArch: cycles simulated: 35000  inst.: 19312521 (ipc=551.8) sim_rate=643750 (inst/sec) elapsed = 0:0:00:30 / Sun Jan 27 01:56:11 2019
GPGPU-Sim PTX: 20200000 instructions simulated : ctaid=(266,0,0) tid=(98,0,0)
GPGPU-Sim PTX: 20300000 instructions simulated : ctaid=(248,0,0) tid=(70,0,0)
GPGPU-Sim uArch: Shader 11 finished CTA #1 (35311,0), 2 CTAs running
GPGPU-Sim uArch: core: 11, cta: 1 initialized @(35312,0)
GPGPU-Sim uArch: Shader 8 finished CTA #1 (35413,0), 2 CTAs running
GPGPU-Sim uArch: core:  8, cta: 1 initialized @(35414,0)
GPGPU-Sim uArch: Shader 1 finished CTA #1 (35441,0), 2 CTAs running
GPGPU-Sim uArch: core:  1, cta: 1 initialized @(35442,0)
GPGPU-Sim uArch: Shader 2 finished CTA #1 (35457,0), 2 CTAs running
GPGPU-Sim uArch: core:  2, cta: 1 initialized @(35458,0)
GPGPU-Sim PTX: 20400000 instructions simulated : ctaid=(261,0,0) tid=(463,0,0)
GPGPU-Sim uArch: Shader 6 finished CTA #1 (35478,0), 2 CTAs running
GPGPU-Sim uArch: core:  6, cta: 1 initialized @(35479,0)
GPGPU-Sim uArch: Shader 4 finished CTA #1 (35553,0), 2 CTAs running
GPGPU-Sim uArch: core:  4, cta: 1 initialized @(35554,0)
GPGPU-Sim uArch: Shader 10 finished CTA #1 (35574,0), 2 CTAs running
GPGPU-Sim uArch: core: 10, cta: 1 initialized @(35575,0)
GPGPU-Sim uArch: Shader 9 finished CTA #1 (35593,0), 2 CTAs running
GPGPU-Sim uArch: core:  9, cta: 1 initialized @(35594,0)
GPGPU-Sim uArch: Shader 5 finished CTA #1 (35595,0), 2 CTAs running
GPGPU-Sim uArch: core:  5, cta: 1 initialized @(35596,0)
GPGPU-Sim uArch: Shader 3 finished CTA #1 (35633,0), 2 CTAs running
GPGPU-Sim uArch: Shader 12 finished CTA #1 (35633,0), 2 CTAs running
GPGPU-Sim uArch: core: 12, cta: 1 initialized @(35634,0)
GPGPU-Sim uArch: core:  3, cta: 1 initialized @(35634,0)
GPGPU-Sim uArch: Shader 7 finished CTA #1 (35634,0), 2 CTAs running
GPGPU-Sim uArch: core:  7, cta: 1 initialized @(35635,0)
GPGPU-Sim PTX: 20500000 instructions simulated : ctaid=(287,0,0) tid=(229,0,0)
GPGPU-Sim uArch: Shader 13 finished CTA #1 (35662,0), 2 CTAs running
GPGPU-Sim uArch: core: 13, cta: 1 initialized @(35663,0)
GPGPU-Sim uArch: Shader 14 finished CTA #1 (35681,0), 2 CTAs running
GPGPU-Sim uArch: core: 14, cta: 1 initialized @(35682,0)
GPGPU-Sim uArch: Shader 0 finished CTA #1 (35723,0), 2 CTAs running
GPGPU-Sim uArch: core:  0, cta: 1 initialized @(35724,0)
GPGPU-Sim PTX: 20600000 instructions simulated : ctaid=(267,0,0) tid=(492,0,0)
GPGPU-Sim PTX: 20700000 instructions simulated : ctaid=(273,0,0) tid=(150,0,0)
GPGPU-Sim uArch: cycles simulated: 36000  inst.: 19871758 (ipc=552.0) sim_rate=641024 (inst/sec) elapsed = 0:0:00:31 / Sun Jan 27 01:56:12 2019
GPGPU-Sim PTX: 20800000 instructions simulated : ctaid=(299,0,0) tid=(441,0,0)
GPGPU-Sim PTX: 20900000 instructions simulated : ctaid=(288,0,0) tid=(214,0,0)
GPGPU-Sim PTX: 21000000 instructions simulated : ctaid=(290,0,0) tid=(71,0,0)
GPGPU-Sim PTX: 21100000 instructions simulated : ctaid=(278,0,0) tid=(368,0,0)
GPGPU-Sim PTX: 21200000 instructions simulated : ctaid=(290,0,0) tid=(444,0,0)
GPGPU-Sim PTX: 21300000 instructions simulated : ctaid=(268,0,0) tid=(194,0,0)
GPGPU-Sim uArch: cycles simulated: 37000  inst.: 20479528 (ipc=553.5) sim_rate=639985 (inst/sec) elapsed = 0:0:00:32 / Sun Jan 27 01:56:13 2019
GPGPU-Sim PTX: 21400000 instructions simulated : ctaid=(280,0,0) tid=(462,0,0)
GPGPU-Sim uArch: Shader 2 finished CTA #2 (37216,0), 2 CTAs running
GPGPU-Sim uArch: core:  2, cta: 2 initialized @(37217,0)
GPGPU-Sim uArch: Shader 1 finished CTA #2 (37240,0), 2 CTAs running
GPGPU-Sim uArch: core:  1, cta: 2 initialized @(37241,0)
GPGPU-Sim PTX: 21500000 instructions simulated : ctaid=(274,0,0) tid=(469,0,0)
GPGPU-Sim uArch: Shader 11 finished CTA #2 (37300,0), 2 CTAs running
GPGPU-Sim uArch: core: 11, cta: 2 initialized @(37301,0)
GPGPU-Sim uArch: Shader 4 finished CTA #2 (37317,0), 2 CTAs running
GPGPU-Sim uArch: core:  4, cta: 2 initialized @(37318,0)
GPGPU-Sim uArch: Shader 5 finished CTA #2 (37320,0), 2 CTAs running
GPGPU-Sim uArch: core:  5, cta: 2 initialized @(37321,0)
GPGPU-Sim uArch: Shader 8 finished CTA #2 (37348,0), 2 CTAs running
GPGPU-Sim uArch: Shader 10 finished CTA #2 (37348,0), 2 CTAs running
GPGPU-Sim uArch: core:  8, cta: 2 initialized @(37349,0)
GPGPU-Sim uArch: core: 10, cta: 2 initialized @(37349,0)
GPGPU-Sim uArch: Shader 3 finished CTA #2 (37353,0), 2 CTAs running
GPGPU-Sim uArch: Shader 6 finished CTA #2 (37353,0), 2 CTAs running
GPGPU-Sim uArch: core:  3, cta: 2 initialized @(37354,0)
GPGPU-Sim uArch: core:  6, cta: 2 initialized @(37354,0)
GPGPU-Sim uArch: Shader 12 finished CTA #2 (37364,0), 2 CTAs running
GPGPU-Sim uArch: core: 12, cta: 2 initialized @(37365,0)
GPGPU-Sim uArch: Shader 7 finished CTA #2 (37436,0), 2 CTAs running
GPGPU-Sim uArch: core:  7, cta: 2 initialized @(37437,0)
GPGPU-Sim uArch: Shader 13 finished CTA #2 (37443,0), 2 CTAs running
GPGPU-Sim uArch: core: 13, cta: 2 initialized @(37444,0)
GPGPU-Sim PTX: 21600000 instructions simulated : ctaid=(273,0,0) tid=(188,0,0)
GPGPU-Sim uArch: Shader 9 finished CTA #2 (37493,0), 2 CTAs running
GPGPU-Sim uArch: core:  9, cta: 2 initialized @(37494,0)
GPGPU-Sim uArch: Shader 0 finished CTA #2 (37496,0), 2 CTAs running
GPGPU-Sim uArch: core:  0, cta: 2 initialized @(37497,0)
GPGPU-Sim PTX: 21700000 instructions simulated : ctaid=(295,0,0) tid=(190,0,0)
GPGPU-Sim uArch: Shader 14 finished CTA #2 (37698,0), 2 CTAs running
GPGPU-Sim uArch: core: 14, cta: 2 initialized @(37699,0)
GPGPU-Sim PTX: 21800000 instructions simulated : ctaid=(288,0,0) tid=(261,0,0)
GPGPU-Sim PTX: 21900000 instructions simulated : ctaid=(280,0,0) tid=(85,0,0)
GPGPU-Sim uArch: cycles simulated: 38000  inst.: 21036803 (ipc=553.6) sim_rate=637478 (inst/sec) elapsed = 0:0:00:33 / Sun Jan 27 01:56:14 2019
GPGPU-Sim PTX: 22000000 instructions simulated : ctaid=(295,0,0) tid=(337,0,0)
[...]
gpgpu_stall_shd_mem[g_mem_st][icnt_rc] = 0
gpgpu_stall_shd_mem[g_mem_st][wb_icnt_rc] = 0
gpgpu_stall_shd_mem[g_mem_st][wb_rsrv_fail] = 0
gpgpu_stall_shd_mem[l_mem_ld][mshr_rc] = 0
gpgpu_stall_shd_mem[l_mem_ld][icnt_rc] = 0
gpgpu_stall_shd_mem[l_mem_ld][wb_icnt_rc] = 0
gpgpu_stall_shd_mem[l_mem_ld][wb_rsrv_fail] = 0
gpgpu_stall_shd_mem[l_mem_st][mshr_rc] = 0
gpgpu_stall_shd_mem[l_mem_st][icnt_rc] = 0
gpgpu_stall_shd_mem[l_mem_ld][wb_icnt_rc] = 0
gpgpu_stall_shd_mem[l_mem_ld][wb_rsrv_fail] = 0
gpu_reg_bank_conflict_stalls = 0
Warp Occupancy Distribution:
Stall:146546	W0_Idle:56748	W0_Scoreboard:315050	W1:369306	W2:187584	W3:0	W4:187584	W5:0	W6:0	W7:0	W8:187584	W9:0	W10:0	W11:0	W12:0	W13:0	W14:0	W15:0	W16:187584	W17:0	W18:0	W19:0	W20:0	W21:0	W22:0	W23:0	W24:0	W25:0	W26:0	W27:0	W28:0	W29:0	W30:0	W31:0	W32:2125882
traffic_breakdown_coretomem[CONST_ACC_R] = 120 {8:15,}
traffic_breakdown_coretomem[GLOBAL_ACC_R] = 250000 {8:31250,}
traffic_breakdown_coretomem[GLOBAL_ACC_W] = 39080 {40:977,}
traffic_breakdown_coretomem[INST_ACC_R] = 600 {8:75,}
traffic_breakdown_memtocore[CONST_ACC_R] = 1080 {72:15,}
traffic_breakdown_memtocore[GLOBAL_ACC_R] = 4250000 {136:31250,}
traffic_breakdown_memtocore[GLOBAL_ACC_W] = 7816 {8:977,}
traffic_breakdown_memtocore[INST_ACC_R] = 10200 {136:75,}
maxmrqlatency = 218 
maxdqlatency = 0 
maxmflatency = 776 
averagemflatency = 266 
max_icnt2mem_latency = 221 
max_icnt2sh_latency = 126805 
mrq_lat_table:28517 	1223 	486 	419 	410 	181 	148 	24 	0 	0 	0 	0 	0 	0 	0 	0 	0 	0 	0 	0 	0 	0 	0 	0 	0 	0 	0 	0 	0 	0 	0 	0 	
dq_lat_table:0 	0 	0 	0 	0 	0 	0 	0 	0 	0 	0 	0 	0 	0 	0 	0 	0 	0 	0 	0 	0 	0 	0 	0 	0 	0 	0 	0 	0 	0 	0 	0 	
mf_lat_table:0 	0 	0 	0 	0 	0 	0 	942 	30978 	322 	0 	0 	0 	0 	0 	0 	0 	0 	0 	0 	0 	0 	0 	0 	0 	0 	0 	0 	0 	0 	0 	0 	
icnt2mem_lat_table:0 	0 	0 	31515 	355 	254 	172 	21 	0 	0 	0 	0 	0 	0 	0 	0 	0 	0 	0 	0 	0 	0 	0 	0 	
icnt2sh_lat_table:0 	0 	0 	23026 	7347 	814 	78 	0 	0 	0 	0 	0 	30 	60 	135 	255 	497 	0 	0 	0 	0 	0 	0 	0 	
mf_lat_pw_table:0 	0 	0 	0 	0 	0 	0 	76 	167 	0 	0 	0 	0 	0 	0 	0 	0 	0 	0 	0 	0 	0 	0 	0 	0 	0 	0 	0 	0 	0 	0 	0 	
maximum concurrent accesses to same row:
dram[0]:        32        32        32        32        32        32        32        32        32        32        32        32        32        32        32        32 
dram[1]:        32        32        32        32        32        32        32        32        32        32        32        32        32        32        32        32 
dram[2]:        32        32        32        32        32        32        32        32        32        32        32        32        32        32        32        32 
dram[3]:        32        32        32        32        32        32        32        32        32        32        32        32        32        32        32        32 
dram[4]:        32        32        32        32        32        32        32        32        32        32        32        32        32        32        32        32 
dram[5]:        32        32        32        32        32        32        32        32        32        32        32        32        32        32        32        32 
maximum service time to same row:
dram[0]:     13204     13042     13162     12951     13608     13668     13129     13176     12845     13172     13750     13754     15703     15900     12962     12893 
dram[1]:     13190     12997     13166     13003     13609     13772     13153     13202     12955     12890     13762     13772     15772     15918     12978     12889 
dram[2]:     13191     12915     13184     12971     13593     13578     13248     13081     13010     12696     13760     13716     15856     15827     12958     13033 
dram[3]:     13089     12905     13191     12938     13562     13553     13242     13028     13046     12756     13765     13715     15850     15891     12907     13021 
dram[4]:     13006     12884     13133     12893     13718     13520     13153     12966     13050     12794     13696     13723     15796     15948     12843     13023 
dram[5]:     13000     12950     12925     12866     13655     13512     13124     12941     13050     12782     13724     13749     15796     15981     12870     13002 
average row accesses per activate:
dram[0]: 24.846153 32.000000 32.000000 32.000000 30.000000 30.000000 32.000000 32.000000 25.692308 25.692308 32.000000 32.000000 32.000000 32.000000 32.000000 32.000000 
dram[1]: 29.272728 32.000000 32.000000 32.000000 30.000000 30.000000 32.000000 32.000000 23.785715 22.200001 32.000000 32.000000 32.000000 32.000000 32.000000 32.000000 
dram[2]: 29.181818 32.000000 32.000000 32.000000 30.000000 30.181818 32.000000 32.000000 22.200001 27.416666 32.000000 32.000000 32.000000 32.000000 32.000000 32.000000 
dram[3]: 32.000000 32.000000 32.000000 32.000000 30.000000 30.181818 32.000000 32.000000 25.615385 26.000000 32.000000 32.000000 32.000000 32.000000 32.000000 32.000000 
dram[4]: 32.000000 32.000000 32.000000 32.000000 30.000000 30.181818 32.000000 32.000000 20.687500 20.117647 32.000000 32.000000 32.000000 32.000000 32.000000 32.000000 
dram[5]: 32.000000 32.000000 32.000000 32.000000 30.000000 30.181818 32.000000 32.000000 22.133333 22.533333 32.000000 32.000000 32.000000 32.000000 32.000000 32.000000 
average row locality = 31408/1040 = 30.200001
number of total memory accesses made:
dram[0]:         0         0         0         0         0         0         0         0         0         0         0         0         0         0         0         0 
dram[1]:         0         0         0         0         0         0         0         0         0         0         0         0         0         0         0         0 
dram[2]:         0         0         0         0         0         0         0         0         0         0         0         0         0         0         0         0 
dram[3]:         0         0         0         0         0         0         0         0         0         0         0         0         0         0         0         0 
dram[4]:         0         0         0         0         0         0         0         0         0         0         0         0         0         0         0         0 
dram[5]:         0         0         0         0         0         0         0         0         0         0         0         0         0         0         0         0 
total accesses: 0
min_bank_accesses = 0!
min_chip_accesses = 0!
number of total read accesses:
dram[0]:       323       320       320       320       330       330       352       352       325       324       320       320       320       320       320       320 
dram[1]:       322       320       320       320       330       330       352       352       324       324       320       320       320       320       320       320 
dram[2]:       321       320       320       320       330       332       352       352       324       324       320       320       320       320       320       320 
dram[3]:       320       320       320       320       330       332       352       352       324       324       320       320       320       320       320       320 
dram[4]:       320       320       320       320       330       332       352       352       324       324       320       320       320       320       320       320 
dram[5]:       320       320       320       320       330       332       352       352       324       324       320       320       320       320       320       320 
total reads: 31287
bank skew: 352/320 = 1.10
chip skew: 5216/5214 = 1.00
number of total write accesses:
dram[0]:         0         0         0         0         0         0         0         0         9        10         0         0         0         0         0         0 
dram[1]:         0         0         0         0         0         0         0         0         9         9         0         0         0         0         0         0 
dram[2]:         0         0         0         0         0         0         0         0         9         5         0         0         0         0         0         0 
dram[3]:         0         0         0         0         0         0         0         0         9        14         0         0         0         0         0         0 
dram[4]:         0         0         0         0         0         0         0         0         7        18         0         0         0         0         0         0 
dram[5]:         0         0         0         0         0         0         0         0         8        14         0         0         0         0         0         0 
total reads: 121
min_bank_accesses = 0!
chip skew: 25/14 = 1.79
average mf latency per bank:
dram[0]:        272       263       262       262       265       264       277       282       301       291       273       276       270       271       262       263
dram[1]:        261       262       262       262       266       264       279       279       298       295       279       279       273       272       263       263
dram[2]:        262       262       262       263       266       266       278       283       293       299       276       284       273       272       263       263
dram[3]:        262       262       262       263       267       267       281       280       296       315       276       279       275       268       262       264
dram[4]:        262       262       262       262       266       266       286       282       307       313       284       280       278       269       263       264
dram[5]:        263       262       263       262       264       266       279       281       298       317       276       280       274       270       263       262
maximum mf latency per bank:
dram[0]:        307       300       302       311       471       390       594       562       588       530       581       560       682       612       290       299
dram[1]:        309       297       285       292       493       369       646       655       622       492       638       575       701       649       299       301
dram[2]:        304       289       286       292       491       428       645       587       639       583       598       693       705       776       302       309
dram[3]:        306       280       291       295       545       495       637       687       583       479       501       547       715       597       291       315
dram[4]:        316       303       292       299       432       439       690       625       691       436       675       557       732       602       333       323
dram[5]:        313       295       291       289       388       438       683       671       657       468       533       559       719       606       303       316
Memory Partition 0: 
Cache L2_bank_000:
MSHR contents

Cache L2_bank_001:
MSHR contents

In Dram Latency Queue (total = 0): 
DRAM[0]: 16 bks, busW=4 BL=8 CL=12, tRRD=2 tCCD=6, tRCD=12 tRAS=28 tRP=12 tRC=40
n_cmd=167383 n_nop=156598 n_act=173 n_pre=157 n_req=5235 n_rd=10432 n_write=23 bw_util=0.1249
n_activity=60889 dram_eff=0.3434
bk0: 646a 165638i bk1: 640a 165559i bk2: 640a 165645i bk3: 640a 165552i bk4: 660a 165468i bk5: 660a 165429i bk6: 704a 165196i bk7: 704a 164839i bk8: 650a 165417i bk9: 648a 165353i bk10: 640a 165410i bk11: 640a 165061i bk12: 640a 165244i bk13: 640a 165015i bk14: 640a 165598i bk15: 640a 165414i 
dram_util_bins: 0 0 0 0 0 0 0 0 0 0
dram_eff_bins: 0 0 0 0 0 0 0 0 0 0
mrqq: max=16 avg=0.0492404
Memory Partition 1: 
Cache L2_bank_002:
MSHR contents

Cache L2_bank_003:
MSHR contents

In Dram Latency Queue (total = 0): 
DRAM[1]: 16 bks, busW=4 BL=8 CL=12, tRRD=2 tCCD=6, tRCD=12 tRAS=28 tRP=12 tRC=40
n_cmd=167383 n_nop=156601 n_act=174 n_pre=158 n_req=5232 n_rd=10428 n_write=22 bw_util=0.1249
n_activity=61791 dram_eff=0.3382
bk0: 644a 165650i bk1: 640a 165515i bk2: 640a 165633i bk3: 640a 165481i bk4: 660a 165542i bk5: 660a 165391i bk6: 704a 165305i bk7: 704a 164932i bk8: 648a 165452i bk9: 648a 165107i bk10: 640a 165197i bk11: 640a 164862i bk12: 640a 165341i bk13: 640a 164975i bk14: 640a 165577i bk15: 640a 165452i 
dram_util_bins: 0 0 0 0 0 0 0 0 0 0
dram_eff_bins: 0 0 0 0 0 0 0 0 0 0
mrqq: max=16 avg=0.0465639
Memory Partition 2: 
Cache L2_bank_004:
MSHR contents

Cache L2_bank_005:
MSHR contents

In Dram Latency Queue (total = 0): 
DRAM[2]: 16 bks, busW=4 BL=8 CL=12, tRRD=2 tCCD=6, tRCD=12 tRAS=28 tRP=12 tRC=40
n_cmd=167383 n_nop=156608 n_act=172 n_pre=156 n_req=5229 n_rd=10430 n_write=17 bw_util=0.1248
n_activity=60954 dram_eff=0.3428
bk0: 642a 165650i bk1: 640a 165458i bk2: 640a 165636i bk3: 640a 165446i bk4: 660a 165521i bk5: 664a 165218i bk6: 704a 165305i bk7: 704a 164907i bk8: 648a 165352i bk9: 648a 165169i bk10: 640a 165173i bk11: 640a 164944i bk12: 640a 165095i bk13: 640a 165205i bk14: 640a 165650i bk15: 640a 165388i 
dram_util_bins: 0 0 0 0 0 0 0 0 0 0
dram_eff_bins: 0 0 0 0 0 0 0 0 0 0
mrqq: max=16 avg=0.0691289
Memory Partition 3: 
Cache L2_bank_006:
MSHR contents

Cache L2_bank_007:
MSHR contents

In Dram Latency Queue (total = 0): 
DRAM[3]: 16 bks, busW=4 BL=8 CL=12, tRRD=2 tCCD=6, tRCD=12 tRAS=28 tRP=12 tRC=40
n_cmd=167383 n_nop=156604 n_act=170 n_pre=154 n_req=5237 n_rd=10428 n_write=27 bw_util=0.1249
n_activity=62105 dram_eff=0.3367
bk0: 640a 165711i bk1: 640a 165582i bk2: 640a 165646i bk3: 640a 165458i bk4: 660a 165605i bk5: 664a 165291i bk6: 704a 165355i bk7: 704a 164981i bk8: 648a 165474i bk9: 648a 165235i bk10: 640a 165314i bk11: 640a 164908i bk12: 640a 165335i bk13: 640a 165153i bk14: 640a 165618i bk15: 640a 165373i 
dram_util_bins: 0 0 0 0 0 0 0 0 0 0
dram_eff_bins: 0 0 0 0 0 0 0 0 0 0
mrqq: max=16 avg=0.0514628
Memory Partition 4: 
Cache L2_bank_008:
MSHR contents

Cache L2_bank_009:
MSHR contents

In Dram Latency Queue (total = 0): 
DRAM[4]: 16 bks, busW=4 BL=8 CL=12, tRRD=2 tCCD=6, tRCD=12 tRAS=28 tRP=12 tRC=40
n_cmd=167383 n_nop=156588 n_act=177 n_pre=161 n_req=5239 n_rd=10428 n_write=29 bw_util=0.1249
n_activity=60382 dram_eff=0.3464
bk0: 640a 165678i bk1: 640a 165488i bk2: 640a 165596i bk3: 640a 165539i bk4: 660a 165415i bk5: 664a 165172i bk6: 704a 165159i bk7: 704a 164875i bk8: 648a 165291i bk9: 648a 165141i bk10: 640a 165237i bk11: 640a 164925i bk12: 640a 165059i bk13: 640a 165080i bk14: 640a 165598i bk15: 640a 165344i 
dram_util_bins: 0 0 0 0 0 0 0 0 0 0
dram_eff_bins: 0 0 0 0 0 0 0 0 0 0
mrqq: max=16 avg=0.0595043
Memory Partition 5: 
Cache L2_bank_010:
MSHR contents

Cache L2_bank_011:
MSHR contents

In Dram Latency Queue (total = 0): 
DRAM[5]: 16 bks, busW=4 BL=8 CL=12, tRRD=2 tCCD=6, tRCD=12 tRAS=28 tRP=12 tRC=40
n_cmd=167383 n_nop=156597 n_act=174 n_pre=158 n_req=5236 n_rd=10428 n_write=26 bw_util=0.1249
n_activity=62335 dram_eff=0.3354
bk0: 640a 165717i bk1: 640a 165539i bk2: 640a 165607i bk3: 640a 165529i bk4: 660a 165583i bk5: 664a 165284i bk6: 704a 165200i bk7: 704a 165016i bk8: 648a 165348i bk9: 648a 165171i bk10: 640a 165236i bk11: 640a 164919i bk12: 640a 165196i bk13: 640a 165109i bk14: 640a 165623i bk15: 640a 165478i 
dram_util_bins: 0 0 0 0 0 0 0 0 0 0
dram_eff_bins: 0 0 0 0 0 0 0 0 0 0
mrqq: max=16 avg=0.0558958

========= L2 cache stats =========
L2_cache_bank[0]: Access = 2730, Miss = 2610, Miss_rate = 0.956, Pending_hits = 13, Reservation_fails = 379
L2_cache_bank[1]: Access = 2668, Miss = 2606, Miss_rate = 0.977, Pending_hits = 6, Reservation_fails = 82
L2_cache_bank[2]: Access = 2698, Miss = 2608, Miss_rate = 0.967, Pending_hits = 9, Reservation_fails = 130
L2_cache_bank[3]: Access = 2668, Miss = 2606, Miss_rate = 0.977, Pending_hits = 5, Reservation_fails = 32
L2_cache_bank[4]: Access = 2683, Miss = 2607, Miss_rate = 0.972, Pending_hits = 6, Reservation_fails = 141
L2_cache_bank[5]: Access = 2670, Miss = 2608, Miss_rate = 0.977, Pending_hits = 2, Reservation_fails = 151
L2_cache_bank[6]: Access = 2668, Miss = 2606, Miss_rate = 0.977, Pending_hits = 5, Reservation_fails = 33
L2_cache_bank[7]: Access = 2732, Miss = 2608, Miss_rate = 0.955, Pending_hits = 8, Reservation_fails = 133
L2_cache_bank[8]: Access = 2668, Miss = 2606, Miss_rate = 0.977, Pending_hits = 3, Reservation_fails = 134
L2_cache_bank[9]: Access = 2732, Miss = 2608, Miss_rate = 0.955, Pending_hits = 12, Reservation_fails = 212
L2_cache_bank[10]: Access = 2668, Miss = 2606, Miss_rate = 0.977, Pending_hits = 4, Reservation_fails = 73
L2_cache_bank[11]: Access = 2732, Miss = 2608, Miss_rate = 0.955, Pending_hits = 8, Reservation_fails = 110
L2_total_cache_accesses = 32317
L2_total_cache_misses = 31287
L2_total_cache_miss_rate = 0.9681
L2_total_cache_pending_hits = 81
L2_total_cache_reservation_fails = 1610
L2_total_cache_breakdown:
	L2_cache_stats_breakdown[GLOBAL_ACC_R][MISS] = 31250
	L2_cache_stats_breakdown[GLOBAL_ACC_R][RESERVATION_FAIL] = 797
	L2_cache_stats_breakdown[CONST_ACC_R][HIT] = 11
	L2_cache_stats_breakdown[CONST_ACC_R][HIT_RESERVED] = 3
	L2_cache_stats_breakdown[CONST_ACC_R][MISS] = 1
	L2_cache_stats_breakdown[CONST_ACC_R][RESERVATION_FAIL] = 102
	L2_cache_stats_breakdown[GLOBAL_ACC_W][HIT] = 879
	L2_cache_stats_breakdown[GLOBAL_ACC_W][HIT_RESERVED] = 67
	L2_cache_stats_breakdown[GLOBAL_ACC_W][MISS] = 31
	L2_cache_stats_breakdown[GLOBAL_ACC_W][RESERVATION_FAIL] = 359
	L2_cache_stats_breakdown[INST_ACC_R][HIT] = 59
	L2_cache_stats_breakdown[INST_ACC_R][HIT_RESERVED] = 11
	L2_cache_stats_breakdown[INST_ACC_R][MISS] = 5
	L2_cache_stats_breakdown[INST_ACC_R][RESERVATION_FAIL] = 352
L2_cache_data_port_util = 0.001
L2_cache_fill_port_util = 0.082

icnt_total_pkts_mem_to_simt=157647
icnt_total_pkts_simt_to_mem=33294
LD_mem_lat_dist  0 0 0 0 0 0 0 0 0 0 0 0 0 0 0 0 0 0 0 0 0 0 0 0 0 0 0
ST_mem_lat_dist  0 0 0 0 0 0 0 0 0 0 0 0 0 0 0 0 0 0 0 0 0 0 0 0 0 0 0
----------------------------Interconnect-DETAILS--------------------------------
Class 0:
Packet latency average = 9.87445
	minimum = 6
	maximum = 98
Network latency average = 9.47788
	minimum = 6
	maximum = 75
Slowest packet = 14
Flit latency average = 8.01444
	minimum = 6
	maximum = 71
Slowest flit = 889
Fragmentation average = 0
	minimum = 0
	maximum = 0
Injected packet rate average = 0.0188781
	minimum = 0.0169629 (at node 0)
	maximum = 0.0215447 (at node 22)
Accepted packet rate average = 0.0188781
	minimum = 0.0169629 (at node 0)
	maximum = 0.0215447 (at node 22)
Injected flit rate average = 0.0557694
	minimum = 0.0174755 (at node 0)
	maximum = 0.104853 (at node 15)
Accepted flit rate average= 0.0557694
	minimum = 0.0215447 (at node 16)
	maximum = 0.0840181 (at node 2)
Injected packet length average = 2.95419
Accepted packet length average = 2.95419
Total in-flight flits = 0 (0 measured)
====== Overall Traffic Statistics ======
====== Traffic class 0 ======
Packet latency average = 9.87445 (1 samples)
	minimum = 6 (1 samples)
	maximum = 98 (1 samples)
Network latency average = 9.47788 (1 samples)
	minimum = 6 (1 samples)
	maximum = 75 (1 samples)
Flit latency average = 8.01444 (1 samples)
	minimum = 6 (1 samples)
	maximum = 71 (1 samples)
Fragmentation average = 0 (1 samples)
	minimum = 0 (1 samples)
	maximum = 0 (1 samples)
Injected packet rate average = 0.0188781 (1 samples)
	minimum = 0.0169629 (1 samples)
	maximum = 0.0215447 (1 samples)
Accepted packet rate average = 0.0188781 (1 samples)
	minimum = 0.0169629 (1 samples)
	maximum = 0.0215447 (1 samples)
Injected flit rate average = 0.0557694 (1 samples)
	minimum = 0.0174755 (1 samples)
	maximum = 0.104853 (1 samples)
Accepted flit rate average = 0.0557694 (1 samples)
	minimum = 0.0215447 (1 samples)
	maximum = 0.0840181 (1 samples)
Injected packet size average = 2.95419 (1 samples)
Accepted packet size average = 2.95419 (1 samples)
Hops average = 1 (1 samples)
----------------------------END-of-Interconnect-DETAILS-------------------------


gpgpu_simulation_time = 0 days, 0 hrs, 1 min, 53 sec (113 sec)
gpgpu_simulation_rate = 628532 (inst/sec)
gpgpu_simulation_rate = 1122 (cycle/sec)
112.860016 s
Copying data from device to host...0.000285 s
Verifying results...TEST PASSED

