

        *** GPGPU-Sim Simulator Version 3.2.2  [build 0] ***


GPGPU-Sim PTX: simulation mode 0 (can change with PTX_SIM_MODE_FUNC environment variable:
               1=functional simulation only, 0=detailed performance simulator)
GPGPU-Sim: Configuration options:

-network_mode                           1 # Interconnection network mode
-inter_config_file   config_fermi_islip.icnt # Interconnection network config file
-gpgpu_ptx_use_cuobjdump                    1 # Use cuobjdump to extract ptx and sass from binaries
-gpgpu_experimental_lib_support                    0 # Try to extract code from cuda libraries [Broken because of unknown cudaGetExportTable]
-gpgpu_ptx_convert_to_ptxplus                    0 # Convert SASS (native ISA) to ptxplus and run ptxplus
-gpgpu_ptx_force_max_capability                   20 # Force maximum compute capability
-gpgpu_ptx_inst_debug_to_file                    0 # Dump executed instructions' debug information to file
-gpgpu_ptx_inst_debug_file       inst_debug.txt # Executed instructions' debug output file
-gpgpu_ptx_inst_debug_thread_uid                    1 # Thread UID for executed instructions' debug output
-gpgpu_simd_model                       1 # 1 = post-dominator
-gpgpu_shader_core_pipeline              1536:32 # shader core pipeline config, i.e., {<nthread>:<warpsize>}
-gpgpu_tex_cache:l1  4:128:24,L:R:m:N:L,F:128:4,128:2 # per-shader L1 texture cache  (READ-ONLY) config  {<nsets>:<bsize>:<assoc>,<rep>:<wr>:<alloc>:<wr_alloc>,<mshr>:<N>:<merge>,<mq>:<rf>}
-gpgpu_const_cache:l1 64:64:2,L:R:f:N:L,A:2:32,4 # per-shader L1 constant memory cache  (READ-ONLY) config  {<nsets>:<bsize>:<assoc>,<rep>:<wr>:<alloc>:<wr_alloc>,<mshr>:<N>:<merge>,<mq>} 
-gpgpu_cache:il1     4:128:4,L:R:f:N:L,A:2:32,4 # shader L1 instruction cache config  {<nsets>:<bsize>:<assoc>,<rep>:<wr>:<alloc>:<wr_alloc>,<mshr>:<N>:<merge>,<mq>} 
-gpgpu_cache:dl1     32:128:4,L:L:m:N:H,A:32:8,8 # per-shader L1 data cache config  {<nsets>:<bsize>:<assoc>,<rep>:<wr>:<alloc>:<wr_alloc>,<mshr>:<N>:<merge>,<mq> | none}
-gpgpu_cache:dl1PrefL1                 none # per-shader L1 data cache config  {<nsets>:<bsize>:<assoc>,<rep>:<wr>:<alloc>:<wr_alloc>,<mshr>:<N>:<merge>,<mq> | none}
-gpgpu_cache:dl1PreShared                 none # per-shader L1 data cache config  {<nsets>:<bsize>:<assoc>,<rep>:<wr>:<alloc>:<wr_alloc>,<mshr>:<N>:<merge>,<mq> | none}
-gmem_skip_L1D                          0 # global memory access skip L1D cache (implements -Xptxas -dlcm=cg, default=no skip)
-gpgpu_perfect_mem                      0 # enable perfect memory mode (no cache miss)
-n_regfile_gating_group                    4 # group of lanes that should be read/written together)
-gpgpu_clock_gated_reg_file                    0 # enable clock gated reg file for power calculations
-gpgpu_clock_gated_lanes                    0 # enable clock gated lanes for power calculations
-gpgpu_shader_registers                32768 # Number of registers per shader core. Limits number of concurrent CTAs. (default 8192)
-gpgpu_shader_cta                       8 # Maximum number of concurrent CTAs in shader (default 8)
-gpgpu_num_cta_barriers                   16 # Maximum number of named barriers per CTA (default 16)
-gpgpu_n_clusters                      15 # number of processing clusters
-gpgpu_n_cores_per_cluster                    1 # number of simd cores per cluster
-gpgpu_n_cluster_ejection_buffer_size                    8 # number of packets in ejection buffer
-gpgpu_n_ldst_response_buffer_size                    2 # number of response packets in ld/st unit ejection buffer
-gpgpu_shmem_size                   16384 # Size of shared memory per shader core (default 16kB)
-gpgpu_shmem_size                   49152 # Size of shared memory per shader core (default 16kB)
-gpgpu_shmem_size_PrefL1                16384 # Size of shared memory per shader core (default 16kB)
-gpgpu_shmem_size_PrefShared                16384 # Size of shared memory per shader core (default 16kB)
-gpgpu_shmem_num_banks                   32 # Number of banks in the shared memory in each shader core (default 16)
-gpgpu_shmem_limited_broadcast                    0 # Limit shared memory to do one broadcast per cycle (default on)
-gpgpu_shmem_warp_parts                    1 # Number of portions a warp is divided into for shared memory bank conflict check 
-gpgpu_warpdistro_shader                   -1 # Specify which shader core to collect the warp size distribution from
-gpgpu_warp_issue_shader                    0 # Specify which shader core to collect the warp issue distribution from
-gpgpu_local_mem_map                    1 # Mapping from local memory space address to simulated GPU physical address space (default = enabled)
-gpgpu_num_reg_banks                   16 # Number of register banks (default = 8)
-gpgpu_reg_bank_use_warp_id                    0 # Use warp ID in mapping registers to banks (default = off)
-gpgpu_operand_collector_num_units_sp                    6 # number of collector units (default = 4)
-gpgpu_operand_collector_num_units_sfu                    8 # number of collector units (default = 4)
-gpgpu_operand_collector_num_units_mem                    2 # number of collector units (default = 2)
-gpgpu_operand_collector_num_units_gen                    0 # number of collector units (default = 0)
-gpgpu_operand_collector_num_in_ports_sp                    2 # number of collector unit in ports (default = 1)
-gpgpu_operand_collector_num_in_ports_sfu                    1 # number of collector unit in ports (default = 1)
-gpgpu_operand_collector_num_in_ports_mem                    1 # number of collector unit in ports (default = 1)
-gpgpu_operand_collector_num_in_ports_gen                    0 # number of collector unit in ports (default = 0)
-gpgpu_operand_collector_num_out_ports_sp                    2 # number of collector unit in ports (default = 1)
-gpgpu_operand_collector_num_out_ports_sfu                    1 # number of collector unit in ports (default = 1)
-gpgpu_operand_collector_num_out_ports_mem                    1 # number of collector unit in ports (default = 1)
-gpgpu_operand_collector_num_out_ports_gen                    0 # number of collector unit in ports (default = 0)
-gpgpu_coalesce_arch                   13 # Coalescing arch (default = 13, anything else is off for now)
-gpgpu_num_sched_per_core                    2 # Number of warp schedulers per core
-gpgpu_max_insn_issue_per_warp                    1 # Max number of instructions that can be issued per warp in one cycle by scheduler
-gpgpu_simt_core_sim_order                    1 # Select the simulation order of cores in a cluster (0=Fix, 1=Round-Robin)
-gpgpu_pipeline_widths        2,1,1,2,1,1,2 # Pipeline widths ID_OC_SP,ID_OC_SFU,ID_OC_MEM,OC_EX_SP,OC_EX_SFU,OC_EX_MEM,EX_WB
-gpgpu_num_sp_units                     2 # Number of SP units (default=1)
-gpgpu_num_sfu_units                    1 # Number of SF units (default=1)
-gpgpu_num_mem_units                    1 # Number if ldst units (default=1) WARNING: not hooked up to anything
-gpgpu_scheduler                      gto # Scheduler configuration: < lrr | gto | two_level_active > If two_level_active:<num_active_warps>:<inner_prioritization>:<outer_prioritization>For complete list of prioritization values see shader.h enum scheduler_prioritization_typeDefault: gto
-gpgpu_dram_scheduler                    1 # 0 = fifo, 1 = FR-FCFS (defaul)
-gpgpu_dram_partition_queues              8:8:8:8 # i2$:$2d:d2$:$2i
-l2_ideal                               0 # Use a ideal L2 cache that always hit
-gpgpu_cache:dl2     64:128:8,L:B:m:W:L,A:32:4,4:0,32 # unified banked L2 data cache config  {<nsets>:<bsize>:<assoc>,<rep>:<wr>:<alloc>:<wr_alloc>,<mshr>:<N>:<merge>,<mq>}
-gpgpu_cache:dl2_texture_only                    0 # L2 cache used for texture only
-gpgpu_n_mem                            6 # number of memory modules (e.g. memory controllers) in gpu
-gpgpu_n_sub_partition_per_mchannel                    2 # number of memory subpartition in each memory module
-gpgpu_n_mem_per_ctrlr                    2 # number of memory chips per memory controller
-gpgpu_memlatency_stat                   14 # track and display latency statistics 0x2 enables MC, 0x4 enables queue logs
-gpgpu_frfcfs_dram_sched_queue_size                   16 # 0 = unlimited (default); # entries per chip
-gpgpu_dram_return_queue_size                  116 # 0 = unlimited (default); # entries per chip
-gpgpu_dram_buswidth                    4 # default = 4 bytes (8 bytes per cycle at DDR)
-gpgpu_dram_burst_length                    8 # Burst length of each DRAM request (default = 4 data bus cycle)
-dram_data_command_freq_ratio                    4 # Frequency ratio between DRAM data bus and command bus (default = 2 times, i.e. DDR)
-gpgpu_dram_timing_opt nbk=16:CCD=2:RRD=6:RCD=12:RAS=28:RP=12:RC=40: CL=12:WL=4:CDLR=5:WR=12:nbkgrp=4:CCDL=3:RTPL=2 # DRAM timing parameters = {nbk:tCCD:tRRD:tRCD:tRAS:tRP:tRC:CL:WL:tCDLR:tWR:nbkgrp:tCCDL:tRTPL}
-rop_latency                          120 # ROP queue latency (default 85)
-dram_latency                         100 # DRAM latency (default 30)
-gpgpu_mem_addr_mapping dramid@8;00000000.00000000.00000000.00000000.0000RRRR.RRRRRRRR.BBBCCCCB.CCSSSSSS # mapping memory address to dram model {dramid@<start bit>;<memory address map>}
-gpgpu_mem_addr_test                    0 # run sweep test to check address mapping for aliased address
-gpgpu_mem_address_mask                    1 # 0 = old addressing mask, 1 = new addressing mask, 2 = new add. mask + flipped bank sel and chip sel bits
-gpuwattch_xml_file  gpuwattch_gtx480.xml # GPUWattch XML file
-power_simulation_enabled                    1 # Turn on power simulator (1=On, 0=Off)
-power_per_cycle_dump                    0 # Dump detailed power output each cycle
-power_trace_enabled                    0 # produce a file for the power trace (1=On, 0=Off)
-power_trace_zlevel                     6 # Compression level of the power trace output log (0=no comp, 9=highest)
-steady_power_levels_enabled                    0 # produce a file for the steady power levels (1=On, 0=Off)
-steady_state_definition                  8:4 # allowed deviation:number of samples
-gpgpu_max_cycle                        0 # terminates gpu simulation early (0 = no limit)
-gpgpu_max_insn                         0 # terminates gpu simulation early (0 = no limit)
-gpgpu_max_cta                          0 # terminates gpu simulation early (0 = no limit)
-gpgpu_runtime_stat                   500 # display runtime statistics such as dram utilization {<freq>:<flag>}
-liveness_message_freq                    1 # Minimum number of seconds between simulation liveness messages (0 = always print)
-gpgpu_flush_l1_cache                    0 # Flush L1 cache at the end of each kernel call
-gpgpu_flush_l2_cache                    0 # Flush L2 cache at the end of each kernel call
-gpgpu_deadlock_detect                    1 # Stop the simulation at deadlock (1=on (default), 0=off)
-gpgpu_ptx_instruction_classification                    0 # if enabled will classify ptx instruction types per kernel (Max 255 kernels now)
-gpgpu_ptx_sim_mode                     0 # Select between Performance (default) or Functional simulation (1)
-gpgpu_clock_domains 700.0:700.0:700.0:924.0 # Clock Domain Frequencies in MhZ {<Core Clock>:<ICNT Clock>:<L2 Clock>:<DRAM Clock>}
-gpgpu_max_concurrent_kernel                    8 # maximum kernels that can run concurrently on GPU
-gpgpu_cflog_interval                    0 # Interval between each snapshot in control flow logger
-visualizer_enabled                     0 # Turn on visualizer output (1=On, 0=Off)
-visualizer_outputfile                 NULL # Specifies the output log file for visualizer
-visualizer_zlevel                      6 # Compression level of the visualizer output log (0=no comp, 9=highest)
-trace_enabled                          0 # Turn on traces
-trace_components                    none # comma seperated list of traces to enable. Complete list found in trace_streams.tup. Default none
-trace_sampling_core                    0 # The core which is printed using CORE_DPRINTF. Default 0
-trace_sampling_memory_partition                   -1 # The memory partition which is printed using MEMPART_DPRINTF. Default -1 (i.e. all)
-enable_ptx_file_line_stats                    1 # Turn on PTX source line statistic profiling. (1 = On)
-ptx_line_stats_filename gpgpu_inst_stats.txt # Output file for PTX source line statistics.
-save_embedded_ptx                      0 # saves ptx files embedded in binary as <n>.ptx
-keep                                   0 # keep intermediate files created by GPGPU-Sim when interfacing with external programs
-gpgpu_ptx_save_converted_ptxplus                    0 # Saved converted ptxplus to a file
-ptx_opcode_latency_int         4,13,4,5,145 # Opcode latencies for integers <ADD,MAX,MUL,MAD,DIV>Default 1,1,19,25,145
-ptx_opcode_latency_fp          4,13,4,5,39 # Opcode latencies for single precision floating points <ADD,MAX,MUL,MAD,DIV>Default 1,1,1,1,30
-ptx_opcode_latency_dp         8,19,8,8,330 # Opcode latencies for double precision floating points <ADD,MAX,MUL,MAD,DIV>Default 8,8,8,8,335
-ptx_opcode_initiation_int            1,2,2,1,8 # Opcode initiation intervals for integers <ADD,MAX,MUL,MAD,DIV>Default 1,1,4,4,32
-ptx_opcode_initiation_fp            1,2,1,1,4 # Opcode initiation intervals for single precision floating points <ADD,MAX,MUL,MAD,DIV>Default 1,1,1,1,5
-ptx_opcode_initiation_dp         8,16,8,8,130 # Opcode initiation intervals for double precision floating points <ADD,MAX,MUL,MAD,DIV>Default 8,8,8,8,130
DRAM Timing Options:
nbk                                    16 # number of banks
CCD                                     2 # column to column delay
RRD                                     6 # minimal delay between activation of rows in different banks
RCD                                    12 # row to column delay
RAS                                    28 # time needed to activate row
RP                                     12 # time needed to precharge (deactivate) row
RC                                     40 # row cycle time
CDLR                                    5 # switching from write to read (changes tWTR)
WR                                     12 # last data-in to row precharge
CL                                     12 # CAS latency
WL                                      4 # Write latency
nbkgrp                                  4 # number of bank groups
CCDL                                    3 # column to column delay between accesses to different bank groups
RTPL                                    2 # read to precharge delay between accesses to different bank groups
Total number of memory sub partition = 12
addr_dec_mask[CHIP]  = 0000000000000000 	high:64 low:0
addr_dec_mask[BK]    = 000000000000e100 	high:16 low:8
addr_dec_mask[ROW]   = 000000000fff0000 	high:28 low:16
addr_dec_mask[COL]   = 0000000000001eff 	high:13 low:0
addr_dec_mask[BURST] = 000000000000003f 	high:6 low:0
sub_partition_id_mask = 0000000000000100
GPGPU-Sim uArch: clock freqs: 700000000.000000:700000000.000000:700000000.000000:924000000.000000
GPGPU-Sim uArch: clock periods: 0.00000000142857142857:0.00000000142857142857:0.00000000142857142857:0.00000000108225108225
*** Initializing Memory Statistics ***
GPGPU-Sim uArch: interconnect node map (shaderID+MemID to icntID)
GPGPU-Sim uArch: Memory nodes ID start from index: 15
GPGPU-Sim uArch:    0   1   2   3   4
GPGPU-Sim uArch:    5   6   7   8   9
GPGPU-Sim uArch:   10  11  12  13  14
GPGPU-Sim uArch:   15  16  17  18  19
GPGPU-Sim uArch:   20  21  22  23  24
GPGPU-Sim uArch:   25  26
GPGPU-Sim uArch: interconnect node reverse map (icntID to shaderID+MemID)
GPGPU-Sim uArch: Memory nodes start from ID: 15
GPGPU-Sim uArch:    0   1   2   3   4
GPGPU-Sim uArch:    5   6   7   8   9
GPGPU-Sim uArch:   10  11  12  13  14
GPGPU-Sim uArch:   15  16  17  18  19
GPGPU-Sim uArch:   20  21  22  23  24
GPGPU-Sim uArch:   25  26
62bcd685c334cf2b5518be73161e6c79  /root/UCR-CS217-GPU/Lab1/reduction-starter/step2/reduction
GPGPU-Sim uArch: performance model initialization complete.
GPGPU-Sim PTX: __cudaRegisterFatBinary, fat_cubin_handle = 1, filename=main.cu
self exe links to: /root/UCR-CS217-GPU/Lab1/reduction-starter/step2/reduction
Running md5sum using "md5sum /root/UCR-CS217-GPU/Lab1/reduction-starter/step2/reduction "
Running cuobjdump using "$CUDA_INSTALL_PATH/bin/cuobjdump -ptx -elf -sass /root/UCR-CS217-GPU/Lab1/reduction-starter/step2/reduction > _cuobjdump_complete_output_7A9KDa"
Parsing file _cuobjdump_complete_output_7A9KDa
######### cuobjdump parser ########
## Adding new section ELF
Adding arch: sm_10
Adding identifier: main.cu
## Adding new section PTX
Adding ptx filename: _cuobjdump_1.ptx
Adding arch: sm_10
Adding identifier: main.cu
## Adding new section ELF
Adding arch: sm_21
Adding identifier: support.cu
## Adding new section PTX
Adding ptx filename: _cuobjdump_2.ptx
Adding arch: sm_20
Adding identifier: support.cu
Done parsing!!!
GPGPU-Sim PTX: __cudaRegisterFunction _Z9reductionPfS_j : hostFun 0x0x400e40, fat_cubin_handle = 1
GPGPU-Sim PTX: allocating shared region for "__cuda___cuda_local_var_16308_35_non_const_partialSum20" from 0x0 to 0x1000 (shared memory space)
GPGPU-Sim PTX: instruction assembly for function '_Z9reductionPfS_j'...   done.
GPGPU-Sim PTX: finding reconvergence points for '_Z9reductionPfS_j'...
GPGPU-Sim PTX: Finding dominators for '_Z9reductionPfS_j'...
GPGPU-Sim PTX: Finding immediate dominators for '_Z9reductionPfS_j'...
GPGPU-Sim PTX: Finding postdominators for '_Z9reductionPfS_j'...
GPGPU-Sim PTX: Finding immediate postdominators for '_Z9reductionPfS_j'...
GPGPU-Sim PTX: pre-decoding instructions for '_Z9reductionPfS_j'...
GPGPU-Sim PTX: reconvergence points for _Z9reductionPfS_j...
GPGPU-Sim PTX:  1 (potential) branch divergence @  PC=0x060 (_1.ptx:73) @%p1 bra $Lt_0_4610;
GPGPU-Sim PTX:    immediate post dominator      @  PC=0x0b0 (_1.ptx:87) add.u32 %r8, %r5, %r1;
GPGPU-Sim PTX:  2 (potential) branch divergence @  PC=0x098 (_1.ptx:81) bra.uni $Lt_0_4354;
GPGPU-Sim PTX:    immediate post dominator      @  PC=0x0b0 (_1.ptx:87) add.u32 %r8, %r5, %r1;
GPGPU-Sim PTX:  3 (potential) branch divergence @  PC=0x0f0 (_1.ptx:97) @%p2 bra $Lt_0_5122;
GPGPU-Sim PTX:    immediate post dominator      @  PC=0x140 (_1.ptx:112) mov.s32 %r11, %r1;
GPGPU-Sim PTX:  4 (potential) branch divergence @  PC=0x128 (_1.ptx:105) bra.uni $Lt_0_4866;
GPGPU-Sim PTX:    immediate post dominator      @  PC=0x140 (_1.ptx:112) mov.s32 %r11, %r1;
GPGPU-Sim PTX:  5 (potential) branch divergence @  PC=0x158 (_1.ptx:115) @%p3 bra $Lt_0_5378;
GPGPU-Sim PTX:    immediate post dominator      @  PC=0x1d8 (_1.ptx:137) mov.u32 %r15, 0;
GPGPU-Sim PTX:  6 (potential) branch divergence @  PC=0x170 (_1.ptx:120) @%p4 bra $Lt_0_6146;
GPGPU-Sim PTX:    immediate post dominator      @  PC=0x1b8 (_1.ptx:132) shr.u32 %r11, %r11, 1;
GPGPU-Sim PTX:  7 (potential) branch divergence @  PC=0x1d0 (_1.ptx:135) @%p5 bra $Lt_0_5890;
GPGPU-Sim PTX:    immediate post dominator      @  PC=0x1d8 (_1.ptx:137) mov.u32 %r15, 0;
GPGPU-Sim PTX:  8 (potential) branch divergence @  PC=0x1e8 (_1.ptx:139) @%p6 bra $Lt_0_6914;
GPGPU-Sim PTX:    immediate post dominator      @  PC=0x220 (_1.ptx:149) exit;
GPGPU-Sim PTX: ... end of reconvergence points for _Z9reductionPfS_j
GPGPU-Sim PTX: ... done pre-decoding instructions for '_Z9reductionPfS_j'.
GPGPU-Sim PTX: finished parsing EMBEDDED .ptx file _1.ptx
Adding _cuobjdump_1.ptx with cubin handle 1
GPGPU-Sim PTX: extracting embedded .ptx to temporary file "_ptx_wgk6XD"
Running: cat _ptx_wgk6XD | sed 's/.version 1.5/.version 1.4/' | sed 's/, texmode_independent//' | sed 's/\(\.extern \.const\[1\] .b8 \w\+\)\[\]/\1\[1\]/' | sed 's/const\[.\]/const\[0\]/g' > _ptx2_9IWsi7
GPGPU-Sim PTX: generating ptxinfo using "$CUDA_INSTALL_PATH/bin/ptxas --gpu-name=sm_20 -v _ptx2_9IWsi7 --output-file  /dev/null 2> _ptx_wgk6XDinfo"
GPGPU-Sim PTX: Kernel '_Z9reductionPfS_j' : regs=10, lmem=0, smem=4096, cmem=52
GPGPU-Sim PTX: removing ptxinfo using "rm -f _ptx_wgk6XD _ptx2_9IWsi7 _ptx_wgk6XDinfo"
GPGPU-Sim PTX: loading globals with explicit initializers... 
GPGPU-Sim PTX: finished loading globals (0 bytes total).
GPGPU-Sim PTX: loading constants with explicit initializers...  done.
GPGPU-Sim PTX: __cudaRegisterFatBinary, fat_cubin_handle = 2, filename=support.cu

Setting up the problem...0.016681 s
    Input size = 1000000
Allocating device variables...0.000008 s
Copying data from host to device...0.103399 s
Launching kernel...
GPGPU-Sim PTX: cudaLaunch for 0x0x400e40 (mode=performance simulation) on stream 0
GPGPU-Sim PTX: pushing kernel '_Z9reductionPfS_j' to stream 0, gridDim= (977,1,1) blockDim = (512,1,1) 
kernel '_Z9reductionPfS_j' transfer to GPU hardware scheduler
GPGPU-Sim uArch: Shader 1 bind to kernel 1 '_Z9reductionPfS_j'
GPGPU-Sim uArch: CTA/core = 3, limited by: threads
GPGPU-Sim uArch: core:  1, cta: 0 initialized @(1,0)
GPGPU-Sim uArch: Shader 2 bind to kernel 1 '_Z9reductionPfS_j'
GPGPU-Sim uArch: core:  2, cta: 0 initialized @(1,0)
GPGPU-Sim uArch: Shader 3 bind to kernel 1 '_Z9reductionPfS_j'
GPGPU-Sim uArch: core:  3, cta: 0 initialized @(1,0)
GPGPU-Sim uArch: Shader 4 bind to kernel 1 '_Z9reductionPfS_j'
GPGPU-Sim uArch: core:  4, cta: 0 initialized @(1,0)
GPGPU-Sim uArch: Shader 5 bind to kernel 1 '_Z9reductionPfS_j'
GPGPU-Sim uArch: core:  5, cta: 0 initialized @(1,0)
GPGPU-Sim uArch: Shader 6 bind to kernel 1 '_Z9reductionPfS_j'
GPGPU-Sim uArch: core:  6, cta: 0 initialized @(1,0)
GPGPU-Sim uArch: Shader 7 bind to kernel 1 '_Z9reductionPfS_j'
GPGPU-Sim uArch: core:  7, cta: 0 initialized @(1,0)
GPGPU-Sim uArch: Shader 8 bind to kernel 1 '_Z9reductionPfS_j'
GPGPU-Sim uArch: core:  8, cta: 0 initialized @(1,0)
GPGPU-Sim uArch: Shader 9 bind to kernel 1 '_Z9reductionPfS_j'
GPGPU-Sim uArch: core:  9, cta: 0 initialized @(1,0)
GPGPU-Sim uArch: Shader 10 bind to kernel 1 '_Z9reductionPfS_j'
GPGPU-Sim uArch: core: 10, cta: 0 initialized @(1,0)
GPGPU-Sim uArch: Shader 11 bind to kernel 1 '_Z9reductionPfS_j'
GPGPU-Sim uArch: core: 11, cta: 0 initialized @(1,0)
GPGPU-Sim uArch: Shader 12 bind to kernel 1 '_Z9reductionPfS_j'
GPGPU-Sim uArch: core: 12, cta: 0 initialized @(1,0)
GPGPU-Sim uArch: Shader 13 bind to kernel 1 '_Z9reductionPfS_j'
GPGPU-Sim uArch: core: 13, cta: 0 initialized @(1,0)
GPGPU-Sim uArch: Shader 14 bind to kernel 1 '_Z9reductionPfS_j'
GPGPU-Sim uArch: core: 14, cta: 0 initialized @(1,0)
GPGPU-Sim uArch: Shader 0 bind to kernel 1 '_Z9reductionPfS_j'
GPGPU-Sim uArch: core:  0, cta: 0 initialized @(1,0)
GPGPU-Sim uArch: core:  1, cta: 1 initialized @(2,0)
GPGPU-Sim uArch: core:  2, cta: 1 initialized @(2,0)
GPGPU-Sim uArch: core:  3, cta: 1 initialized @(2,0)
GPGPU-Sim uArch: core:  4, cta: 1 initialized @(2,0)
GPGPU-Sim uArch: core:  5, cta: 1 initialized @(2,0)
GPGPU-Sim uArch: core:  6, cta: 1 initialized @(2,0)
GPGPU-Sim uArch: core:  7, cta: 1 initialized @(2,0)
GPGPU-Sim uArch: core:  8, cta: 1 initialized @(2,0)
GPGPU-Sim uArch: core:  9, cta: 1 initialized @(2,0)
GPGPU-Sim uArch: core: 10, cta: 1 initialized @(2,0)
GPGPU-Sim uArch: core: 11, cta: 1 initialized @(2,0)
GPGPU-Sim uArch: core: 12, cta: 1 initialized @(2,0)
GPGPU-Sim uArch: core: 13, cta: 1 initialized @(2,0)
GPGPU-Sim uArch: core: 14, cta: 1 initialized @(2,0)
GPGPU-Sim uArch: core:  0, cta: 1 initialized @(2,0)
GPGPU-Sim uArch: core:  1, cta: 2 initialized @(3,0)
GPGPU-Sim uArch: core:  2, cta: 2 initialized @(3,0)
GPGPU-Sim uArch: core:  3, cta: 2 initialized @(3,0)
GPGPU-Sim uArch: core:  4, cta: 2 initialized @(3,0)
GPGPU-Sim uArch: core:  5, cta: 2 initialized @(3,0)
GPGPU-Sim uArch: core:  6, cta: 2 initialized @(3,0)
GPGPU-Sim uArch: core:  7, cta: 2 initialized @(3,0)
GPGPU-Sim uArch: core:  8, cta: 2 initialized @(3,0)
GPGPU-Sim uArch: core:  9, cta: 2 initialized @(3,0)
GPGPU-Sim uArch: core: 10, cta: 2 initialized @(3,0)
GPGPU-Sim uArch: core: 11, cta: 2 initialized @(3,0)
GPGPU-Sim uArch: core: 12, cta: 2 initialized @(3,0)
GPGPU-Sim uArch: core: 13, cta: 2 initialized @(3,0)
GPGPU-Sim uArch: core: 14, cta: 2 initialized @(3,0)
GPGPU-Sim uArch: core:  0, cta: 2 initialized @(3,0)
GPGPU-Sim PTX: 100000 instructions simulated : ctaid=(15,0,0) tid=(191,0,0)
GPGPU-Sim uArch: cycles simulated: 500  inst.: 134016 (ipc=268.0) sim_rate=134016 (inst/sec) elapsed = 0:0:00:01 / Sun Jan 27 01:50:46 2019
GPGPU-Sim PTX: 200000 instructions simulated : ctaid=(24,0,0) tid=(383,0,0)
GPGPU-Sim PTX: 300000 instructions simulated : ctaid=(10,0,0) tid=(383,0,0)
GPGPU-Sim PTX: 400000 instructions simulated : ctaid=(42,0,0) tid=(287,0,0)
GPGPU-Sim PTX: 500000 instructions simulated : ctaid=(15,0,0) tid=(127,0,0)
GPGPU-Sim PTX: 600000 instructions simulated : ctaid=(42,0,0) tid=(191,0,0)
GPGPU-Sim PTX: 700000 instructions simulated : ctaid=(19,0,0) tid=(159,0,0)
GPGPU-Sim PTX: 800000 instructions simulated : ctaid=(11,0,0) tid=(159,0,0)
GPGPU-Sim uArch: cycles simulated: 2500  inst.: 763136 (ipc=305.3) sim_rate=381568 (inst/sec) elapsed = 0:0:00:02 / Sun Jan 27 01:50:48 2019
GPGPU-Sim PTX: 900000 instructions simulated : ctaid=(30,0,0) tid=(319,0,0)
GPGPU-Sim PTX: 1000000 instructions simulated : ctaid=(2,0,0) tid=(95,0,0)
GPGPU-Sim PTX: 1100000 instructions simulated : ctaid=(33,0,0) tid=(351,0,0)
GPGPU-Sim PTX: 1200000 instructions simulated : ctaid=(13,0,0) tid=(383,0,0)
GPGPU-Sim PTX: 1300000 instructions simulated : ctaid=(36,0,0) tid=(415,0,0)
GPGPU-Sim PTX: 1400000 instructions simulated : ctaid=(19,0,0) tid=(223,0,0)
GPGPU-Sim PTX: 1500000 instructions simulated : ctaid=(33,0,0) tid=(159,0,0)
GPGPU-Sim PTX: 1600000 instructions simulated : ctaid=(22,0,0) tid=(511,0,0)
GPGPU-Sim PTX: 1700000 instructions simulated : ctaid=(13,0,0) tid=(31,0,0)
GPGPU-Sim PTX: 1800000 instructions simulated : ctaid=(20,0,0) tid=(367,0,0)
GPGPU-Sim uArch: cycles simulated: 4000  inst.: 1727152 (ipc=431.8) sim_rate=575717 (inst/sec) elapsed = 0:0:00:03 / Sun Jan 27 01:50:49 2019
GPGPU-Sim PTX: 1900000 instructions simulated : ctaid=(4,0,0) tid=(79,0,0)
GPGPU-Sim PTX: 2000000 instructions simulated : ctaid=(44,0,0) tid=(151,0,0)
GPGPU-Sim PTX: 2100000 instructions simulated : ctaid=(42,0,0) tid=(227,0,0)
GPGPU-Sim PTX: 2200000 instructions simulated : ctaid=(14,0,0) tid=(347,0,0)
GPGPU-Sim PTX: 2300000 instructions simulated : ctaid=(3,0,0) tid=(297,0,0)
GPGPU-Sim PTX: 2400000 instructions simulated : ctaid=(44,0,0) tid=(253,0,0)
GPGPU-Sim PTX: 2500000 instructions simulated : ctaid=(29,0,0) tid=(412,0,0)
GPGPU-Sim PTX: 2600000 instructions simulated : ctaid=(15,0,0) tid=(187,0,0)
GPGPU-Sim PTX: 2700000 instructions simulated : ctaid=(33,0,0) tid=(452,0,0)
GPGPU-Sim PTX: 2800000 instructions simulated : ctaid=(8,0,0) tid=(471,0,0)
GPGPU-Sim PTX: 2900000 instructions simulated : ctaid=(32,0,0) tid=(59,0,0)
GPGPU-Sim uArch: Shader 1 finished CTA #0 (5625,0), 2 CTAs running
GPGPU-Sim uArch: core:  1, cta: 0 initialized @(5626,0)
GPGPU-Sim uArch: Shader 2 finished CTA #0 (5644,0), 2 CTAs running
GPGPU-Sim uArch: core:  2, cta: 0 initialized @(5645,0)
GPGPU-Sim uArch: Shader 1 finished CTA #1 (5688,0), 2 CTAs running
GPGPU-Sim uArch: core:  1, cta: 1 initialized @(5689,0)
GPGPU-Sim uArch: Shader 2 finished CTA #1 (5703,0), 2 CTAs running
GPGPU-Sim uArch: core:  2, cta: 1 initialized @(5704,0)
GPGPU-Sim uArch: Shader 8 finished CTA #0 (5712,0), 2 CTAs running
GPGPU-Sim uArch: core:  8, cta: 0 initialized @(5713,0)
GPGPU-Sim uArch: Shader 8 finished CTA #1 (5746,0), 2 CTAs running
GPGPU-Sim uArch: core:  8, cta: 1 initialized @(5747,0)
GPGPU-Sim PTX: 3000000 instructions simulated : ctaid=(45,0,0) tid=(213,0,0)
GPGPU-Sim uArch: Shader 1 finished CTA #2 (5760,0), 2 CTAs running
GPGPU-Sim uArch: core:  1, cta: 2 initialized @(5761,0)
GPGPU-Sim uArch: Shader 5 finished CTA #0 (5780,0), 2 CTAs running
GPGPU-Sim uArch: core:  5, cta: 0 initialized @(5781,0)
GPGPU-Sim uArch: Shader 2 finished CTA #2 (5793,0), 2 CTAs running
GPGPU-Sim uArch: core:  2, cta: 2 initialized @(5794,0)
GPGPU-Sim uArch: Shader 5 finished CTA #1 (5813,0), 2 CTAs running
GPGPU-Sim uArch: Shader 11 finished CTA #0 (5813,0), 2 CTAs running
GPGPU-Sim uArch: core:  5, cta: 1 initialized @(5814,0)
GPGPU-Sim uArch: core: 11, cta: 0 initialized @(5814,0)
GPGPU-Sim uArch: Shader 3 finished CTA #0 (5816,0), 2 CTAs running
GPGPU-Sim uArch: core:  3, cta: 0 initialized @(5817,0)
GPGPU-Sim uArch: Shader 4 finished CTA #0 (5819,0), 2 CTAs running
GPGPU-Sim uArch: core:  4, cta: 0 initialized @(5820,0)
GPGPU-Sim uArch: Shader 3 finished CTA #1 (5833,0), 2 CTAs running
GPGPU-Sim uArch: core:  3, cta: 1 initialized @(5834,0)
GPGPU-Sim uArch: Shader 4 finished CTA #1 (5852,0), 2 CTAs running
GPGPU-Sim uArch: core:  4, cta: 1 initialized @(5853,0)
GPGPU-Sim uArch: Shader 6 finished CTA #0 (5855,0), 2 CTAs running
GPGPU-Sim uArch: core:  6, cta: 0 initialized @(5856,0)
GPGPU-Sim uArch: Shader 11 finished CTA #1 (5861,0), 2 CTAs running
GPGPU-Sim uArch: core: 11, cta: 1 initialized @(5862,0)
GPGPU-Sim uArch: Shader 6 finished CTA #1 (5872,0), 2 CTAs running
GPGPU-Sim uArch: core:  6, cta: 1 initialized @(5873,0)
GPGPU-Sim uArch: Shader 12 finished CTA #0 (5879,0), 2 CTAs running
GPGPU-Sim uArch: core: 12, cta: 0 initialized @(5880,0)
GPGPU-Sim uArch: Shader 0 finished CTA #1 (5895,0), 2 CTAs running
GPGPU-Sim uArch: core:  0, cta: 1 initialized @(5896,0)
GPGPU-Sim uArch: Shader 0 finished CTA #0 (5912,0), 2 CTAs running
GPGPU-Sim uArch: Shader 12 finished CTA #1 (5912,0), 2 CTAs running
GPGPU-Sim uArch: core: 12, cta: 1 initialized @(5913,0)
GPGPU-Sim uArch: core:  0, cta: 0 initialized @(5913,0)
GPGPU-Sim uArch: Shader 3 finished CTA #2 (5957,0), 2 CTAs running
GPGPU-Sim uArch: core:  3, cta: 2 initialized @(5958,0)
GPGPU-Sim PTX: 3100000 instructions simulated : ctaid=(47,0,0) tid=(313,0,0)
GPGPU-Sim uArch: Shader 10 finished CTA #0 (5976,0), 2 CTAs running
GPGPU-Sim uArch: core: 10, cta: 0 initialized @(5977,0)
GPGPU-Sim uArch: Shader 7 finished CTA #0 (5982,0), 2 CTAs running
GPGPU-Sim uArch: core:  7, cta: 0 initialized @(5983,0)
GPGPU-Sim uArch: Shader 11 finished CTA #2 (5983,0), 2 CTAs running
GPGPU-Sim uArch: core: 11, cta: 2 initialized @(5984,0)
GPGPU-Sim uArch: Shader 8 finished CTA #2 (5989,0), 2 CTAs running
GPGPU-Sim uArch: core:  8, cta: 2 initialized @(5990,0)
GPGPU-Sim uArch: Shader 6 finished CTA #2 (5990,0), 2 CTAs running
GPGPU-Sim uArch: core:  6, cta: 2 initialized @(5991,0)
GPGPU-Sim uArch: Shader 4 finished CTA #2 (5991,0), 2 CTAs running
GPGPU-Sim uArch: core:  4, cta: 2 initialized @(5992,0)
GPGPU-Sim uArch: Shader 0 finished CTA #2 (5992,0), 2 CTAs running
GPGPU-Sim uArch: core:  0, cta: 2 initialized @(5993,0)
GPGPU-Sim uArch: Shader 10 finished CTA #1 (5993,0), 2 CTAs running
GPGPU-Sim uArch: core: 10, cta: 1 initialized @(5994,0)
GPGPU-Sim uArch: Shader 5 finished CTA #2 (5996,0), 2 CTAs running
GPGPU-Sim uArch: core:  5, cta: 2 initialized @(5997,0)
GPGPU-Sim uArch: Shader 12 finished CTA #2 (5997,0), 2 CTAs running
GPGPU-Sim uArch: core: 12, cta: 2 initialized @(5998,0)
GPGPU-Sim uArch: Shader 9 finished CTA #0 (5998,0), 2 CTAs running
GPGPU-Sim uArch: core:  9, cta: 0 initialized @(5999,0)
GPGPU-Sim uArch: Shader 7 finished CTA #1 (5999,0), 2 CTAs running
GPGPU-Sim uArch: Shader 7 finished CTA #2 (5999,0), 1 CTAs running
GPGPU-Sim uArch: core:  7, cta: 1 initialized @(6000,0)
GPGPU-Sim uArch: cycles simulated: 6000  inst.: 2969478 (ipc=494.9) sim_rate=742369 (inst/sec) elapsed = 0:0:00:04 / Sun Jan 27 01:50:50 2019
GPGPU-Sim uArch: core:  7, cta: 2 initialized @(6001,0)
GPGPU-Sim uArch: Shader 13 finished CTA #0 (6011,0), 2 CTAs running
GPGPU-Sim uArch: core: 13, cta: 0 initialized @(6012,0)
GPGPU-Sim uArch: Shader 9 finished CTA #1 (6015,0), 2 CTAs running
GPGPU-Sim uArch: Shader 9 finished CTA #2 (6015,0), 1 CTAs running
GPGPU-Sim uArch: core:  9, cta: 1 initialized @(6016,0)
GPGPU-Sim uArch: core:  9, cta: 2 initialized @(6017,0)
GPGPU-Sim uArch: Shader 14 finished CTA #0 (6020,0), 2 CTAs running
GPGPU-Sim uArch: core: 14, cta: 0 initialized @(6021,0)
GPGPU-Sim uArch: Shader 10 finished CTA #2 (6025,0), 2 CTAs running
GPGPU-Sim uArch: core: 10, cta: 2 initialized @(6026,0)
GPGPU-Sim uArch: Shader 13 finished CTA #1 (6028,0), 2 CTAs running
GPGPU-Sim uArch: Shader 13 finished CTA #2 (6028,0), 1 CTAs running
GPGPU-Sim uArch: core: 13, cta: 1 initialized @(6029,0)
GPGPU-Sim uArch: core: 13, cta: 2 initialized @(6030,0)
GPGPU-Sim uArch: Shader 14 finished CTA #1 (6037,0), 2 CTAs running
GPGPU-Sim uArch: Shader 14 finished CTA #2 (6037,0), 1 CTAs running
GPGPU-Sim uArch: core: 14, cta: 1 initialized @(6038,0)
GPGPU-Sim uArch: core: 14, cta: 2 initialized @(6039,0)
GPGPU-Sim PTX: 3200000 instructions simulated : ctaid=(74,0,0) tid=(313,0,0)
GPGPU-Sim PTX: 3300000 instructions simulated : ctaid=(68,0,0) tid=(121,0,0)
GPGPU-Sim PTX: 3400000 instructions simulated : ctaid=(86,0,0) tid=(249,0,0)
GPGPU-Sim PTX: 3500000 instructions simulated : ctaid=(57,0,0) tid=(473,0,0)
GPGPU-Sim PTX: 3600000 instructions simulated : ctaid=(68,0,0) tid=(89,0,0)
GPGPU-Sim PTX: 3700000 instructions simulated : ctaid=(84,0,0) tid=(441,0,0)
GPGPU-Sim uArch: cycles simulated: 7000  inst.: 3573254 (ipc=510.5) sim_rate=714650 (inst/sec) elapsed = 0:0:00:05 / Sun Jan 27 01:50:51 2019
GPGPU-Sim PTX: 3800000 instructions simulated : ctaid=(74,0,0) tid=(409,0,0)
GPGPU-Sim PTX: 3900000 instructions simulated : ctaid=(46,0,0) tid=(409,0,0)
GPGPU-Sim PTX: 4000000 instructions simulated : ctaid=(60,0,0) tid=(313,0,0)
GPGPU-Sim PTX: 4100000 instructions simulated : ctaid=(56,0,0) tid=(249,0,0)
GPGPU-Sim PTX: 4200000 instructions simulated : ctaid=(84,0,0) tid=(153,0,0)
GPGPU-Sim PTX: 4300000 instructions simulated : ctaid=(69,0,0) tid=(153,0,0)
GPGPU-Sim PTX: 4400000 instructions simulated : ctaid=(77,0,0) tid=(121,0,0)
GPGPU-Sim PTX: 4500000 instructions simulated : ctaid=(84,0,0) tid=(169,0,0)
GPGPU-Sim PTX: 4600000 instructions simulated : ctaid=(49,0,0) tid=(121,0,0)
GPGPU-Sim PTX: 4700000 instructions simulated : ctaid=(74,0,0) tid=(233,0,0)
GPGPU-Sim PTX: 4800000 instructions simulated : ctaid=(53,0,0) tid=(201,0,0)
GPGPU-Sim PTX: 4900000 instructions simulated : ctaid=(46,0,0) tid=(181,0,0)
GPGPU-Sim uArch: cycles simulated: 8500  inst.: 4672894 (ipc=549.8) sim_rate=778815 (inst/sec) elapsed = 0:0:00:06 / Sun Jan 27 01:50:52 2019
GPGPU-Sim PTX: 5000000 instructions simulated : ctaid=(80,0,0) tid=(69,0,0)
GPGPU-Sim PTX: 5100000 instructions simulated : ctaid=(46,0,0) tid=(53,0,0)
GPGPU-Sim PTX: 5200000 instructions simulated : ctaid=(47,0,0) tid=(441,0,0)
GPGPU-Sim PTX: 5300000 instructions simulated : ctaid=(72,0,0) tid=(290,0,0)
GPGPU-Sim PTX: 5400000 instructions simulated : ctaid=(73,0,0) tid=(124,0,0)
GPGPU-Sim PTX: 5500000 instructions simulated : ctaid=(76,0,0) tid=(464,0,0)
GPGPU-Sim uArch: Shader 2 finished CTA #0 (9407,0), 2 CTAs running
GPGPU-Sim uArch: core:  2, cta: 0 initialized @(9408,0)
GPGPU-Sim uArch: Shader 1 finished CTA #0 (9411,0), 2 CTAs running
GPGPU-Sim uArch: core:  1, cta: 0 initialized @(9412,0)
GPGPU-Sim PTX: 5600000 instructions simulated : ctaid=(52,0,0) tid=(453,0,0)
GPGPU-Sim uArch: Shader 8 finished CTA #0 (9487,0), 2 CTAs running
GPGPU-Sim uArch: core:  8, cta: 0 initialized @(9488,0)
GPGPU-Sim uArch: cycles simulated: 9500  inst.: 5349706 (ipc=563.1) sim_rate=764243 (inst/sec) elapsed = 0:0:00:07 / Sun Jan 27 01:50:53 2019
GPGPU-Sim PTX: 5700000 instructions simulated : ctaid=(62,0,0) tid=(138,0,0)
GPGPU-Sim uArch: Shader 11 finished CTA #0 (9648,0), 2 CTAs running
GPGPU-Sim uArch: core: 11, cta: 0 initialized @(9649,0)
GPGPU-Sim uArch: Shader 2 finished CTA #1 (9733,0), 2 CTAs running
GPGPU-Sim uArch: core:  2, cta: 1 initialized @(9734,0)
GPGPU-Sim uArch: Shader 1 finished CTA #1 (9743,0), 2 CTAs running
GPGPU-Sim uArch: core:  1, cta: 1 initialized @(9744,0)
GPGPU-Sim PTX: 5800000 instructions simulated : ctaid=(93,0,0) tid=(161,0,0)
GPGPU-Sim uArch: Shader 5 finished CTA #0 (9793,0), 2 CTAs running
GPGPU-Sim uArch: core:  5, cta: 0 initialized @(9794,0)
GPGPU-Sim uArch: Shader 4 finished CTA #0 (9801,0), 2 CTAs running
GPGPU-Sim uArch: core:  4, cta: 0 initialized @(9802,0)
GPGPU-Sim uArch: Shader 0 finished CTA #1 (9809,0), 2 CTAs running
GPGPU-Sim uArch: core:  0, cta: 1 initialized @(9810,0)
GPGPU-Sim uArch: Shader 3 finished CTA #0 (9849,0), 2 CTAs running
GPGPU-Sim uArch: core:  3, cta: 0 initialized @(9850,0)
GPGPU-Sim uArch: Shader 12 finished CTA #0 (9865,0), 2 CTAs running
GPGPU-Sim uArch: core: 12, cta: 0 initialized @(9866,0)
GPGPU-Sim uArch: Shader 8 finished CTA #1 (9869,0), 2 CTAs running
GPGPU-Sim uArch: core:  8, cta: 1 initialized @(9870,0)
GPGPU-Sim uArch: Shader 6 finished CTA #0 (9893,0), 2 CTAs running
GPGPU-Sim uArch: core:  6, cta: 0 initialized @(9894,0)
GPGPU-Sim PTX: 5900000 instructions simulated : ctaid=(67,0,0) tid=(254,0,0)
GPGPU-Sim uArch: Shader 14 finished CTA #0 (10025,0), 2 CTAs running
GPGPU-Sim uArch: core: 14, cta: 0 initialized @(10026,0)
GPGPU-Sim uArch: Shader 7 finished CTA #0 (10034,0), 2 CTAs running
GPGPU-Sim uArch: core:  7, cta: 0 initialized @(10035,0)
GPGPU-Sim PTX: 6000000 instructions simulated : ctaid=(77,0,0) tid=(277,0,0)
GPGPU-Sim uArch: Shader 10 finished CTA #0 (10073,0), 2 CTAs running
GPGPU-Sim uArch: core: 10, cta: 0 initialized @(10074,0)
GPGPU-Sim uArch: Shader 11 finished CTA #1 (10077,0), 2 CTAs running
GPGPU-Sim uArch: core: 11, cta: 1 initialized @(10078,0)
GPGPU-Sim uArch: Shader 5 finished CTA #1 (10105,0), 2 CTAs running
GPGPU-Sim uArch: core:  5, cta: 1 initialized @(10106,0)
GPGPU-Sim uArch: Shader 0 finished CTA #0 (10117,0), 2 CTAs running
GPGPU-Sim uArch: core:  0, cta: 0 initialized @(10118,0)
GPGPU-Sim uArch: Shader 4 finished CTA #1 (10130,0), 2 CTAs running
GPGPU-Sim uArch: core:  4, cta: 1 initialized @(10131,0)
GPGPU-Sim uArch: Shader 9 finished CTA #0 (10131,0), 2 CTAs running
GPGPU-Sim uArch: core:  9, cta: 0 initialized @(10132,0)
GPGPU-Sim uArch: Shader 13 finished CTA #0 (10142,0), 2 CTAs running
GPGPU-Sim uArch: core: 13, cta: 0 initialized @(10143,0)
GPGPU-Sim uArch: Shader 1 finished CTA #2 (10146,0), 2 CTAs running
GPGPU-Sim uArch: core:  1, cta: 2 initialized @(10147,0)
GPGPU-Sim uArch: Shader 2 finished CTA #2 (10162,0), 2 CTAs running
GPGPU-Sim uArch: core:  2, cta: 2 initialized @(10163,0)
GPGPU-Sim PTX: 6100000 instructions simulated : ctaid=(72,0,0) tid=(488,0,0)
GPGPU-Sim uArch: Shader 3 finished CTA #1 (10178,0), 2 CTAs running
GPGPU-Sim uArch: core:  3, cta: 1 initialized @(10179,0)
GPGPU-Sim uArch: Shader 6 finished CTA #1 (10235,0), 2 CTAs running
GPGPU-Sim uArch: core:  6, cta: 1 initialized @(10236,0)
GPGPU-Sim uArch: Shader 12 finished CTA #1 (10246,0), 2 CTAs running
GPGPU-Sim uArch: core: 12, cta: 1 initialized @(10247,0)
GPGPU-Sim uArch: Shader 5 finished CTA #2 (10259,0), 2 CTAs running
GPGPU-Sim uArch: core:  5, cta: 2 initialized @(10260,0)
GPGPU-Sim uArch: Shader 7 finished CTA #1 (10277,0), 2 CTAs running
GPGPU-Sim uArch: core:  7, cta: 1 initialized @(10278,0)
GPGPU-Sim PTX: 6200000 instructions simulated : ctaid=(95,0,0) tid=(135,0,0)
GPGPU-Sim uArch: Shader 14 finished CTA #1 (10344,0), 2 CTAs running
GPGPU-Sim uArch: core: 14, cta: 1 initialized @(10345,0)
GPGPU-Sim uArch: Shader 4 finished CTA #2 (10363,0), 2 CTAs running
GPGPU-Sim uArch: core:  4, cta: 2 initialized @(10364,0)
GPGPU-Sim uArch: Shader 8 finished CTA #2 (10373,0), 2 CTAs running
GPGPU-Sim uArch: core:  8, cta: 2 initialized @(10374,0)
GPGPU-Sim uArch: Shader 10 finished CTA #1 (10384,0), 2 CTAs running
GPGPU-Sim uArch: core: 10, cta: 1 initialized @(10385,0)
GPGPU-Sim uArch: Shader 3 finished CTA #2 (10405,0), 2 CTAs running
GPGPU-Sim uArch: core:  3, cta: 2 initialized @(10406,0)
GPGPU-Sim PTX: 6300000 instructions simulated : ctaid=(87,0,0) tid=(185,0,0)
GPGPU-Sim uArch: Shader 13 finished CTA #1 (10468,0), 2 CTAs running
GPGPU-Sim uArch: core: 13, cta: 1 initialized @(10469,0)
GPGPU-Sim uArch: cycles simulated: 10500  inst.: 6037974 (ipc=575.0) sim_rate=754746 (inst/sec) elapsed = 0:0:00:08 / Sun Jan 27 01:50:54 2019
GPGPU-Sim uArch: Shader 6 finished CTA #2 (10507,0), 2 CTAs running
GPGPU-Sim uArch: core:  6, cta: 2 initialized @(10508,0)
GPGPU-Sim uArch: Shader 11 finished CTA #2 (10509,0), 2 CTAs running
GPGPU-Sim uArch: core: 11, cta: 2 initialized @(10510,0)
GPGPU-Sim uArch: Shader 9 finished CTA #1 (10567,0), 2 CTAs running
GPGPU-Sim uArch: core:  9, cta: 1 initialized @(10568,0)
GPGPU-Sim PTX: 6400000 instructions simulated : ctaid=(123,0,0) tid=(221,0,0)
GPGPU-Sim uArch: Shader 12 finished CTA #2 (10615,0), 2 CTAs running
GPGPU-Sim uArch: core: 12, cta: 2 initialized @(10616,0)
GPGPU-Sim uArch: Shader 0 finished CTA #2 (10617,0), 2 CTAs running
GPGPU-Sim uArch: core:  0, cta: 2 initialized @(10618,0)
GPGPU-Sim uArch: Shader 7 finished CTA #2 (10627,0), 2 CTAs running
GPGPU-Sim uArch: core:  7, cta: 2 initialized @(10628,0)
GPGPU-Sim uArch: Shader 10 finished CTA #2 (10653,0), 2 CTAs running
GPGPU-Sim uArch: core: 10, cta: 2 initialized @(10654,0)
GPGPU-Sim PTX: 6500000 instructions simulated : ctaid=(128,0,0) tid=(121,0,0)
GPGPU-Sim uArch: Shader 9 finished CTA #2 (10722,0), 2 CTAs running
GPGPU-Sim uArch: core:  9, cta: 2 initialized @(10723,0)
GPGPU-Sim uArch: Shader 13 finished CTA #2 (10791,0), 2 CTAs running
GPGPU-Sim uArch: core: 13, cta: 2 initialized @(10792,0)
GPGPU-Sim PTX: 6600000 instructions simulated : ctaid=(106,0,0) tid=(339,0,0)
GPGPU-Sim PTX: 6700000 instructions simulated : ctaid=(116,0,0) tid=(243,0,0)
GPGPU-Sim uArch: Shader 14 finished CTA #2 (11001,0), 2 CTAs running
GPGPU-Sim uArch: core: 14, cta: 2 initialized @(11002,0)
GPGPU-Sim PTX: 6800000 instructions simulated : ctaid=(92,0,0) tid=(115,0,0)
GPGPU-Sim PTX: 6900000 instructions simulated : ctaid=(134,0,0) tid=(307,0,0)
GPGPU-Sim PTX: 7000000 instructions simulated : ctaid=(119,0,0) tid=(115,0,0)
GPGPU-Sim PTX: 7100000 instructions simulated : ctaid=(110,0,0) tid=(371,0,0)
GPGPU-Sim uArch: cycles simulated: 11500  inst.: 6757228 (ipc=587.6) sim_rate=750803 (inst/sec) elapsed = 0:0:00:09 / Sun Jan 27 01:50:55 2019
GPGPU-Sim PTX: 7200000 instructions simulated : ctaid=(91,0,0) tid=(19,0,0)
GPGPU-Sim PTX: 7300000 instructions simulated : ctaid=(134,0,0) tid=(195,0,0)
GPGPU-Sim PTX: 7400000 instructions simulated : ctaid=(110,0,0) tid=(131,0,0)
GPGPU-Sim PTX: 7500000 instructions simulated : ctaid=(98,0,0) tid=(275,0,0)
GPGPU-Sim PTX: 7600000 instructions simulated : ctaid=(127,0,0) tid=(251,0,0)
GPGPU-Sim PTX: 7700000 instructions simulated : ctaid=(106,0,0) tid=(35,0,0)
GPGPU-Sim PTX: 7800000 instructions simulated : ctaid=(106,0,0) tid=(53,0,0)
GPGPU-Sim PTX: 7900000 instructions simulated : ctaid=(127,0,0) tid=(143,0,0)
GPGPU-Sim PTX: 8000000 instructions simulated : ctaid=(106,0,0) tid=(208,0,0)
GPGPU-Sim PTX: 8100000 instructions simulated : ctaid=(127,0,0) tid=(475,0,0)
GPGPU-Sim PTX: 8200000 instructions simulated : ctaid=(96,0,0) tid=(308,0,0)
GPGPU-Sim uArch: cycles simulated: 13000  inst.: 7856903 (ipc=604.4) sim_rate=785690 (inst/sec) elapsed = 0:0:00:10 / Sun Jan 27 01:50:56 2019
GPGPU-Sim PTX: 8300000 instructions simulated : ctaid=(98,0,0) tid=(268,0,0)
GPGPU-Sim uArch: Shader 2 finished CTA #0 (13109,0), 2 CTAs running
GPGPU-Sim uArch: core:  2, cta: 0 initialized @(13110,0)
GPGPU-Sim uArch: Shader 1 finished CTA #0 (13152,0), 2 CTAs running
GPGPU-Sim uArch: core:  1, cta: 0 initialized @(13153,0)
GPGPU-Sim uArch: Shader 8 finished CTA #0 (13181,0), 2 CTAs running
GPGPU-Sim uArch: core:  8, cta: 0 initialized @(13182,0)
GPGPU-Sim PTX: 8400000 instructions simulated : ctaid=(109,0,0) tid=(203,0,0)
GPGPU-Sim uArch: Shader 11 finished CTA #0 (13267,0), 2 CTAs running
GPGPU-Sim uArch: core: 11, cta: 0 initialized @(13268,0)
GPGPU-Sim PTX: 8500000 instructions simulated : ctaid=(109,0,0) tid=(450,0,0)
GPGPU-Sim PTX: 8600000 instructions simulated : ctaid=(113,0,0) tid=(83,0,0)
GPGPU-Sim uArch: Shader 4 finished CTA #0 (13567,0), 2 CTAs running
GPGPU-Sim uArch: core:  4, cta: 0 initialized @(13568,0)
GPGPU-Sim uArch: Shader 12 finished CTA #0 (13571,0), 2 CTAs running
GPGPU-Sim uArch: core: 12, cta: 0 initialized @(13572,0)
GPGPU-Sim uArch: Shader 0 finished CTA #1 (13608,0), 2 CTAs running
GPGPU-Sim uArch: core:  0, cta: 1 initialized @(13609,0)
GPGPU-Sim uArch: Shader 5 finished CTA #0 (13614,0), 2 CTAs running
GPGPU-Sim uArch: core:  5, cta: 0 initialized @(13615,0)
GPGPU-Sim PTX: 8700000 instructions simulated : ctaid=(139,0,0) tid=(147,0,0)
GPGPU-Sim uArch: Shader 2 finished CTA #1 (13665,0), 2 CTAs running
GPGPU-Sim uArch: core:  2, cta: 1 initialized @(13666,0)
GPGPU-Sim uArch: Shader 6 finished CTA #0 (13708,0), 2 CTAs running
GPGPU-Sim uArch: core:  6, cta: 0 initialized @(13709,0)
GPGPU-Sim uArch: Shader 1 finished CTA #1 (13724,0), 2 CTAs running
GPGPU-Sim uArch: core:  1, cta: 1 initialized @(13725,0)
GPGPU-Sim uArch: Shader 3 finished CTA #0 (13746,0), 2 CTAs running
GPGPU-Sim uArch: core:  3, cta: 0 initialized @(13747,0)
GPGPU-Sim uArch: Shader 5 finished CTA #1 (13778,0), 2 CTAs running
GPGPU-Sim uArch: core:  5, cta: 1 initialized @(13779,0)
GPGPU-Sim PTX: 8800000 instructions simulated : ctaid=(116,0,0) tid=(254,0,0)
GPGPU-Sim uArch: Shader 14 finished CTA #0 (13843,0), 2 CTAs running
GPGPU-Sim uArch: core: 14, cta: 0 initialized @(13844,0)
GPGPU-Sim uArch: Shader 8 finished CTA #1 (13865,0), 2 CTAs running
GPGPU-Sim uArch: core:  8, cta: 1 initialized @(13866,0)
GPGPU-Sim PTX: 8900000 instructions simulated : ctaid=(113,0,0) tid=(264,0,0)
GPGPU-Sim uArch: Shader 10 finished CTA #0 (13923,0), 2 CTAs running
GPGPU-Sim uArch: core: 10, cta: 0 initialized @(13924,0)
GPGPU-Sim uArch: Shader 7 finished CTA #0 (13925,0), 2 CTAs running
GPGPU-Sim uArch: core:  7, cta: 0 initialized @(13926,0)
GPGPU-Sim uArch: Shader 4 finished CTA #1 (13979,0), 2 CTAs running
GPGPU-Sim uArch: core:  4, cta: 1 initialized @(13980,0)
GPGPU-Sim uArch: cycles simulated: 14000  inst.: 8542407 (ipc=610.2) sim_rate=776582 (inst/sec) elapsed = 0:0:00:11 / Sun Jan 27 01:50:57 2019
GPGPU-Sim uArch: Shader 13 finished CTA #0 (14032,0), 2 CTAs running
GPGPU-Sim uArch: core: 13, cta: 0 initialized @(14033,0)
GPGPU-Sim uArch: Shader 0 finished CTA #0 (14044,0), 2 CTAs running
GPGPU-Sim uArch: core:  0, cta: 0 initialized @(14045,0)
GPGPU-Sim PTX: 9000000 instructions simulated : ctaid=(125,0,0) tid=(22,0,0)
GPGPU-Sim uArch: Shader 9 finished CTA #0 (14055,0), 2 CTAs running
GPGPU-Sim uArch: core:  9, cta: 0 initialized @(14056,0)
GPGPU-Sim uArch: Shader 12 finished CTA #1 (14121,0), 2 CTAs running
GPGPU-Sim uArch: core: 12, cta: 1 initialized @(14122,0)
GPGPU-Sim uArch: Shader 3 finished CTA #1 (14129,0), 2 CTAs running
GPGPU-Sim uArch: core:  3, cta: 1 initialized @(14130,0)
GPGPU-Sim PTX: 9100000 instructions simulated : ctaid=(154,0,0) tid=(456,0,0)
GPGPU-Sim uArch: Shader 1 finished CTA #2 (14205,0), 2 CTAs running
GPGPU-Sim uArch: core:  1, cta: 2 initialized @(14206,0)
GPGPU-Sim uArch: Shader 11 finished CTA #1 (14230,0), 2 CTAs running
GPGPU-Sim uArch: core: 11, cta: 1 initialized @(14231,0)
GPGPU-Sim uArch: Shader 2 finished CTA #2 (14246,0), 2 CTAs running
GPGPU-Sim uArch: core:  2, cta: 2 initialized @(14247,0)
GPGPU-Sim uArch: Shader 7 finished CTA #1 (14262,0), 2 CTAs running
GPGPU-Sim uArch: core:  7, cta: 1 initialized @(14263,0)
GPGPU-Sim uArch: Shader 6 finished CTA #1 (14280,0), 2 CTAs running
GPGPU-Sim uArch: core:  6, cta: 1 initialized @(14281,0)
GPGPU-Sim uArch: Shader 10 finished CTA #1 (14303,0), 2 CTAs running
GPGPU-Sim uArch: core: 10, cta: 1 initialized @(14304,0)
GPGPU-Sim PTX: 9200000 instructions simulated : ctaid=(146,0,0) tid=(190,0,0)
GPGPU-Sim uArch: Shader 13 finished CTA #1 (14449,0), 2 CTAs running
GPGPU-Sim uArch: core: 13, cta: 1 initialized @(14450,0)
GPGPU-Sim uArch: Shader 9 finished CTA #1 (14454,0), 2 CTAs running
GPGPU-Sim uArch: core:  9, cta: 1 initialized @(14455,0)
GPGPU-Sim PTX: 9300000 instructions simulated : ctaid=(164,0,0) tid=(74,0,0)
GPGPU-Sim uArch: Shader 14 finished CTA #1 (14476,0), 2 CTAs running
GPGPU-Sim uArch: core: 14, cta: 1 initialized @(14477,0)
GPGPU-Sim uArch: Shader 8 finished CTA #2 (14532,0), 2 CTAs running
GPGPU-Sim uArch: core:  8, cta: 2 initialized @(14533,0)
GPGPU-Sim uArch: Shader 11 finished CTA #2 (14534,0), 2 CTAs running
GPGPU-Sim uArch: core: 11, cta: 2 initialized @(14535,0)
GPGPU-Sim PTX: 9400000 instructions simulated : ctaid=(136,0,0) tid=(308,0,0)
GPGPU-Sim uArch: Shader 5 finished CTA #2 (14616,0), 2 CTAs running
GPGPU-Sim uArch: core:  5, cta: 2 initialized @(14617,0)
GPGPU-Sim uArch: Shader 3 finished CTA #2 (14634,0), 2 CTAs running
GPGPU-Sim uArch: core:  3, cta: 2 initialized @(14635,0)
GPGPU-Sim uArch: Shader 4 finished CTA #2 (14675,0), 2 CTAs running
GPGPU-Sim uArch: core:  4, cta: 2 initialized @(14676,0)
GPGPU-Sim uArch: Shader 6 finished CTA #2 (14715,0), 2 CTAs running
GPGPU-Sim uArch: core:  6, cta: 2 initialized @(14716,0)
GPGPU-Sim PTX: 9500000 instructions simulated : ctaid=(151,0,0) tid=(511,0,0)
GPGPU-Sim uArch: Shader 12 finished CTA #2 (14834,0), 2 CTAs running
GPGPU-Sim uArch: core: 12, cta: 2 initialized @(14835,0)
GPGPU-Sim uArch: Shader 0 finished CTA #2 (14838,0), 2 CTAs running
GPGPU-Sim uArch: core:  0, cta: 2 initialized @(14839,0)
GPGPU-Sim uArch: Shader 7 finished CTA #2 (14840,0), 2 CTAs running
GPGPU-Sim uArch: core:  7, cta: 2 initialized @(14841,0)
GPGPU-Sim PTX: 9600000 instructions simulated : ctaid=(149,0,0) tid=(398,0,0)
GPGPU-Sim uArch: Shader 10 finished CTA #2 (14876,0), 2 CTAs running
GPGPU-Sim uArch: core: 10, cta: 2 initialized @(14877,0)
GPGPU-Sim uArch: cycles simulated: 15000  inst.: 9211762 (ipc=614.1) sim_rate=767646 (inst/sec) elapsed = 0:0:00:12 / Sun Jan 27 01:50:58 2019
GPGPU-Sim PTX: 9700000 instructions simulated : ctaid=(162,0,0) tid=(333,0,0)
GPGPU-Sim uArch: Shader 9 finished CTA #2 (15028,0), 2 CTAs running
GPGPU-Sim uArch: core:  9, cta: 2 initialized @(15029,0)
GPGPU-Sim uArch: Shader 13 finished CTA #2 (15043,0), 2 CTAs running
GPGPU-Sim uArch: core: 13, cta: 2 initialized @(15044,0)
GPGPU-Sim PTX: 9800000 instructions simulated : ctaid=(178,0,0) tid=(269,0,0)
GPGPU-Sim uArch: Shader 14 finished CTA #2 (15155,0), 2 CTAs running
GPGPU-Sim uArch: core: 14, cta: 2 initialized @(15156,0)
GPGPU-Sim PTX: 9900000 instructions simulated : ctaid=(151,0,0) tid=(141,0,0)
GPGPU-Sim PTX: 10000000 instructions simulated : ctaid=(141,0,0) tid=(77,0,0)
GPGPU-Sim PTX: 10100000 instructions simulated : ctaid=(173,0,0) tid=(173,0,0)
GPGPU-Sim PTX: 10200000 instructions simulated : ctaid=(146,0,0) tid=(13,0,0)
GPGPU-Sim PTX: 10300000 instructions simulated : ctaid=(151,0,0) tid=(45,0,0)
GPGPU-Sim PTX: 10400000 instructions simulated : ctaid=(149,0,0) tid=(61,0,0)
GPGPU-Sim uArch: cycles simulated: 16000  inst.: 9977094 (ipc=623.6) sim_rate=767468 (inst/sec) elapsed = 0:0:00:13 / Sun Jan 27 01:50:59 2019
GPGPU-Sim PTX: 10500000 instructions simulated : ctaid=(145,0,0) tid=(437,0,0)
GPGPU-Sim PTX: 10600000 instructions simulated : ctaid=(166,0,0) tid=(29,0,0)
GPGPU-Sim PTX: 10700000 instructions simulated : ctaid=(141,0,0) tid=(337,0,0)
GPGPU-Sim PTX: 10800000 instructions simulated : ctaid=(167,0,0) tid=(73,0,0)
GPGPU-Sim PTX: 10900000 instructions simulated : ctaid=(164,0,0) tid=(336,0,0)
GPGPU-Sim PTX: 11000000 instructions simulated : ctaid=(146,0,0) tid=(9,0,0)
GPGPU-Sim PTX: 11100000 instructions simulated : ctaid=(145,0,0) tid=(175,0,0)
GPGPU-Sim uArch: Shader 1 finished CTA #0 (16858,0), 2 CTAs running
GPGPU-Sim uArch: core:  1, cta: 0 initialized @(16859,0)
GPGPU-Sim uArch: Shader 2 finished CTA #0 (16871,0), 2 CTAs running
GPGPU-Sim uArch: core:  2, cta: 0 initialized @(16872,0)
GPGPU-Sim uArch: Shader 8 finished CTA #0 (16888,0), 2 CTAs running
GPGPU-Sim uArch: core:  8, cta: 0 initialized @(16889,0)
GPGPU-Sim uArch: Shader 11 finished CTA #0 (16897,0), 2 CTAs running
GPGPU-Sim uArch: core: 11, cta: 0 initialized @(16898,0)
GPGPU-Sim PTX: 11200000 instructions simulated : ctaid=(149,0,0) tid=(441,0,0)
GPGPU-Sim PTX: 11300000 instructions simulated : ctaid=(179,0,0) tid=(367,0,0)
GPGPU-Sim PTX: 11400000 instructions simulated : ctaid=(162,0,0) tid=(59,0,0)
GPGPU-Sim PTX: 11500000 instructions simulated : ctaid=(170,0,0) tid=(508,0,0)
GPGPU-Sim uArch: Shader 12 finished CTA #0 (17396,0), 2 CTAs running
GPGPU-Sim uArch: core: 12, cta: 0 initialized @(17397,0)
GPGPU-Sim uArch: Shader 3 finished CTA #0 (17397,0), 2 CTAs running
GPGPU-Sim uArch: core:  3, cta: 0 initialized @(17398,0)
GPGPU-Sim uArch: Shader 4 finished CTA #0 (17426,0), 2 CTAs running
GPGPU-Sim uArch: core:  4, cta: 0 initialized @(17427,0)
GPGPU-Sim uArch: Shader 5 finished CTA #0 (17444,0), 2 CTAs running
GPGPU-Sim uArch: core:  5, cta: 0 initialized @(17445,0)
GPGPU-Sim uArch: Shader 0 finished CTA #1 (17466,0), 2 CTAs running
GPGPU-Sim uArch: core:  0, cta: 1 initialized @(17467,0)
GPGPU-Sim uArch: cycles simulated: 17500  inst.: 11043166 (ipc=631.0) sim_rate=788797 (inst/sec) elapsed = 0:0:00:14 / Sun Jan 27 01:51:00 2019
GPGPU-Sim uArch: Shader 6 finished CTA #0 (17504,0), 2 CTAs running
GPGPU-Sim uArch: core:  6, cta: 0 initialized @(17505,0)
GPGPU-Sim PTX: 11600000 instructions simulated : ctaid=(148,0,0) tid=(354,0,0)
GPGPU-Sim uArch: Shader 7 finished CTA #0 (17646,0), 2 CTAs running
GPGPU-Sim uArch: core:  7, cta: 0 initialized @(17647,0)
GPGPU-Sim PTX: 11700000 instructions simulated : ctaid=(179,0,0) tid=(61,0,0)
GPGPU-Sim uArch: Shader 5 finished CTA #1 (17725,0), 2 CTAs running
GPGPU-Sim uArch: core:  5, cta: 1 initialized @(17726,0)
GPGPU-Sim uArch: Shader 13 finished CTA #0 (17726,0), 2 CTAs running
GPGPU-Sim uArch: core: 13, cta: 0 initialized @(17727,0)
GPGPU-Sim uArch: Shader 2 finished CTA #1 (17754,0), 2 CTAs running
GPGPU-Sim uArch: core:  2, cta: 1 initialized @(17755,0)
GPGPU-Sim uArch: Shader 10 finished CTA #0 (17763,0), 2 CTAs running
GPGPU-Sim uArch: core: 10, cta: 0 initialized @(17764,0)
GPGPU-Sim PTX: 11800000 instructions simulated : ctaid=(176,0,0) tid=(85,0,0)
GPGPU-Sim uArch: Shader 14 finished CTA #0 (17836,0), 2 CTAs running
GPGPU-Sim uArch: core: 14, cta: 0 initialized @(17837,0)
GPGPU-Sim uArch: Shader 1 finished CTA #1 (17888,0), 2 CTAs running
GPGPU-Sim uArch: core:  1, cta: 1 initialized @(17889,0)
GPGPU-Sim uArch: Shader 0 finished CTA #0 (17910,0), 2 CTAs running
GPGPU-Sim uArch: core:  0, cta: 0 initialized @(17911,0)
GPGPU-Sim uArch: Shader 9 finished CTA #0 (17913,0), 2 CTAs running
GPGPU-Sim uArch: core:  9, cta: 0 initialized @(17914,0)
GPGPU-Sim PTX: 11900000 instructions simulated : ctaid=(163,0,0) tid=(316,0,0)
GPGPU-Sim uArch: Shader 4 finished CTA #1 (18006,0), 2 CTAs running
GPGPU-Sim uArch: core:  4, cta: 1 initialized @(18007,0)
GPGPU-Sim uArch: Shader 11 finished CTA #1 (18042,0), 2 CTAs running
GPGPU-Sim uArch: core: 11, cta: 1 initialized @(18043,0)
GPGPU-Sim PTX: 12000000 instructions simulated : ctaid=(195,0,0) tid=(38,0,0)
GPGPU-Sim uArch: Shader 8 finished CTA #1 (18141,0), 2 CTAs running
GPGPU-Sim uArch: core:  8, cta: 1 initialized @(18142,0)
GPGPU-Sim uArch: Shader 3 finished CTA #1 (18180,0), 2 CTAs running
GPGPU-Sim uArch: core:  3, cta: 1 initialized @(18181,0)
GPGPU-Sim PTX: 12100000 instructions simulated : ctaid=(182,0,0) tid=(256,0,0)
GPGPU-Sim uArch: Shader 12 finished CTA #1 (18206,0), 2 CTAs running
GPGPU-Sim uArch: core: 12, cta: 1 initialized @(18207,0)
GPGPU-Sim uArch: Shader 1 finished CTA #2 (18322,0), 2 CTAs running
GPGPU-Sim uArch: core:  1, cta: 2 initialized @(18323,0)
GPGPU-Sim PTX: 12200000 instructions simulated : ctaid=(204,0,0) tid=(239,0,0)
GPGPU-Sim uArch: Shader 6 finished CTA #1 (18353,0), 2 CTAs running
GPGPU-Sim uArch: core:  6, cta: 1 initialized @(18354,0)
GPGPU-Sim uArch: Shader 2 finished CTA #2 (18368,0), 2 CTAs running
GPGPU-Sim uArch: core:  2, cta: 2 initialized @(18369,0)
GPGPU-Sim uArch: Shader 7 finished CTA #1 (18434,0), 2 CTAs running
GPGPU-Sim uArch: core:  7, cta: 1 initialized @(18435,0)
GPGPU-Sim uArch: Shader 10 finished CTA #1 (18435,0), 2 CTAs running
GPGPU-Sim uArch: core: 10, cta: 1 initialized @(18436,0)
GPGPU-Sim PTX: 12300000 instructions simulated : ctaid=(170,0,0) tid=(209,0,0)
GPGPU-Sim uArch: Shader 9 finished CTA #1 (18477,0), 2 CTAs running
GPGPU-Sim uArch: core:  9, cta: 1 initialized @(18478,0)
GPGPU-Sim uArch: cycles simulated: 18500  inst.: 11742143 (ipc=634.7) sim_rate=782809 (inst/sec) elapsed = 0:0:00:15 / Sun Jan 27 01:51:01 2019
GPGPU-Sim uArch: Shader 13 finished CTA #1 (18500,0), 2 CTAs running
GPGPU-Sim uArch: core: 13, cta: 1 initialized @(18501,0)
GPGPU-Sim uArch: Shader 14 finished CTA #1 (18553,0), 2 CTAs running
GPGPU-Sim uArch: core: 14, cta: 1 initialized @(18554,0)
GPGPU-Sim uArch: Shader 5 finished CTA #2 (18596,0), 2 CTAs running
GPGPU-Sim uArch: core:  5, cta: 2 initialized @(18597,0)
GPGPU-Sim PTX: 12400000 instructions simulated : ctaid=(197,0,0) tid=(156,0,0)
GPGPU-Sim uArch: Shader 4 finished CTA #2 (18624,0), 2 CTAs running
GPGPU-Sim uArch: core:  4, cta: 2 initialized @(18625,0)
GPGPU-Sim uArch: Shader 8 finished CTA #2 (18675,0), 2 CTAs running
GPGPU-Sim uArch: core:  8, cta: 2 initialized @(18676,0)
GPGPU-Sim PTX: 12500000 instructions simulated : ctaid=(185,0,0) tid=(0,0,0)
GPGPU-Sim uArch: Shader 3 finished CTA #2 (18758,0), 2 CTAs running
GPGPU-Sim uArch: core:  3, cta: 2 initialized @(18759,0)
GPGPU-Sim uArch: Shader 11 finished CTA #2 (18775,0), 2 CTAs running
GPGPU-Sim uArch: core: 11, cta: 2 initialized @(18776,0)
GPGPU-Sim uArch: Shader 0 finished CTA #2 (18777,0), 2 CTAs running
GPGPU-Sim uArch: core:  0, cta: 2 initialized @(18778,0)
GPGPU-Sim uArch: Shader 6 finished CTA #2 (18813,0), 2 CTAs running
GPGPU-Sim uArch: core:  6, cta: 2 initialized @(18814,0)
GPGPU-Sim PTX: 12600000 instructions simulated : ctaid=(214,0,0) tid=(97,0,0)
GPGPU-Sim uArch: Shader 7 finished CTA #2 (18891,0), 2 CTAs running
GPGPU-Sim uArch: core:  7, cta: 2 initialized @(18892,0)
GPGPU-Sim uArch: Shader 12 finished CTA #2 (18917,0), 2 CTAs running
GPGPU-Sim uArch: core: 12, cta: 2 initialized @(18918,0)
GPGPU-Sim uArch: Shader 10 finished CTA #2 (18935,0), 2 CTAs running
GPGPU-Sim uArch: core: 10, cta: 2 initialized @(18936,0)
GPGPU-Sim PTX: 12700000 instructions simulated : ctaid=(181,0,0) tid=(13,0,0)
GPGPU-Sim uArch: Shader 13 finished CTA #2 (19080,0), 2 CTAs running
GPGPU-Sim uArch: core: 13, cta: 2 initialized @(19081,0)
GPGPU-Sim uArch: Shader 9 finished CTA #2 (19120,0), 2 CTAs running
GPGPU-Sim uArch: core:  9, cta: 2 initialized @(19121,0)
GPGPU-Sim PTX: 12800000 instructions simulated : ctaid=(221,0,0) tid=(199,0,0)
GPGPU-Sim PTX: 12900000 instructions simulated : ctaid=(197,0,0) tid=(71,0,0)
GPGPU-Sim uArch: Shader 14 finished CTA #2 (19296,0), 2 CTAs running
GPGPU-Sim uArch: core: 14, cta: 2 initialized @(19297,0)
GPGPU-Sim PTX: 13000000 instructions simulated : ctaid=(184,0,0) tid=(167,0,0)
GPGPU-Sim uArch: cycles simulated: 19500  inst.: 12464256 (ipc=639.2) sim_rate=779016 (inst/sec) elapsed = 0:0:00:16 / Sun Jan 27 01:51:02 2019
GPGPU-Sim PTX: 13100000 instructions simulated : ctaid=(224,0,0) tid=(7,0,0)
GPGPU-Sim PTX: 13200000 instructions simulated : ctaid=(184,0,0) tid=(227,0,0)
GPGPU-Sim PTX: 13300000 instructions simulated : ctaid=(202,0,0) tid=(39,0,0)
GPGPU-Sim PTX: 13400000 instructions simulated : ctaid=(194,0,0) tid=(145,0,0)
GPGPU-Sim PTX: 13500000 instructions simulated : ctaid=(209,0,0) tid=(71,0,0)
GPGPU-Sim PTX: 13600000 instructions simulated : ctaid=(189,0,0) tid=(97,0,0)
GPGPU-Sim PTX: 13700000 instructions simulated : ctaid=(212,0,0) tid=(502,0,0)
GPGPU-Sim PTX: 13800000 instructions simulated : ctaid=(193,0,0) tid=(67,0,0)
GPGPU-Sim uArch: cycles simulated: 20500  inst.: 13203747 (ipc=644.1) sim_rate=776691 (inst/sec) elapsed = 0:0:00:17 / Sun Jan 27 01:51:03 2019
GPGPU-Sim PTX: 13900000 instructions simulated : ctaid=(210,0,0) tid=(247,0,0)
GPGPU-Sim uArch: Shader 2 finished CTA #0 (20553,0), 2 CTAs running
GPGPU-Sim uArch: core:  2, cta: 0 initialized @(20554,0)
GPGPU-Sim uArch: Shader 1 finished CTA #0 (20557,0), 2 CTAs running
GPGPU-Sim uArch: core:  1, cta: 0 initialized @(20558,0)
GPGPU-Sim uArch: Shader 8 finished CTA #0 (20646,0), 2 CTAs running
GPGPU-Sim uArch: core:  8, cta: 0 initialized @(20647,0)
GPGPU-Sim PTX: 14000000 instructions simulated : ctaid=(194,0,0) tid=(23,0,0)
GPGPU-Sim uArch: Shader 11 finished CTA #0 (20731,0), 2 CTAs running
GPGPU-Sim uArch: core: 11, cta: 0 initialized @(20732,0)
GPGPU-Sim PTX: 14100000 instructions simulated : ctaid=(200,0,0) tid=(161,0,0)
GPGPU-Sim PTX: 14200000 instructions simulated : ctaid=(209,0,0) tid=(150,0,0)
GPGPU-Sim uArch: Shader 12 finished CTA #0 (21028,0), 2 CTAs running
GPGPU-Sim uArch: core: 12, cta: 0 initialized @(21029,0)
GPGPU-Sim PTX: 14300000 instructions simulated : ctaid=(204,0,0) tid=(176,0,0)
GPGPU-Sim uArch: Shader 3 finished CTA #0 (21175,0), 2 CTAs running
GPGPU-Sim uArch: core:  3, cta: 0 initialized @(21176,0)
GPGPU-Sim PTX: 14400000 instructions simulated : ctaid=(217,0,0) tid=(68,0,0)
GPGPU-Sim uArch: Shader 6 finished CTA #0 (21252,0), 2 CTAs running
GPGPU-Sim uArch: core:  6, cta: 0 initialized @(21253,0)
GPGPU-Sim uArch: Shader 4 finished CTA #0 (21314,0), 2 CTAs running
GPGPU-Sim uArch: core:  4, cta: 0 initialized @(21315,0)
GPGPU-Sim uArch: Shader 5 finished CTA #0 (21336,0), 2 CTAs running
GPGPU-Sim uArch: core:  5, cta: 0 initialized @(21337,0)
GPGPU-Sim PTX: 14500000 instructions simulated : ctaid=(211,0,0) tid=(371,0,0)
GPGPU-Sim uArch: Shader 0 finished CTA #1 (21374,0), 2 CTAs running
GPGPU-Sim uArch: core:  0, cta: 1 initialized @(21375,0)
GPGPU-Sim uArch: Shader 7 finished CTA #0 (21392,0), 2 CTAs running
GPGPU-Sim uArch: core:  7, cta: 0 initialized @(21393,0)
GPGPU-Sim PTX: 14600000 instructions simulated : ctaid=(210,0,0) tid=(177,0,0)
GPGPU-Sim uArch: cycles simulated: 21500  inst.: 13922048 (ipc=647.5) sim_rate=773447 (inst/sec) elapsed = 0:0:00:18 / Sun Jan 27 01:51:04 2019
GPGPU-Sim uArch: Shader 5 finished CTA #1 (21625,0), 2 CTAs running
GPGPU-Sim uArch: core:  5, cta: 1 initialized @(21626,0)
GPGPU-Sim PTX: 14700000 instructions simulated : ctaid=(217,0,0) tid=(445,0,0)
GPGPU-Sim uArch: Shader 13 finished CTA #0 (21671,0), 2 CTAs running
GPGPU-Sim uArch: core: 13, cta: 0 initialized @(21672,0)
GPGPU-Sim uArch: Shader 10 finished CTA #0 (21732,0), 2 CTAs running
GPGPU-Sim uArch: core: 10, cta: 0 initialized @(21733,0)
GPGPU-Sim uArch: Shader 2 finished CTA #1 (21758,0), 2 CTAs running
GPGPU-Sim uArch: core:  2, cta: 1 initialized @(21759,0)
GPGPU-Sim PTX: 14800000 instructions simulated : ctaid=(238,0,0) tid=(297,0,0)
GPGPU-Sim uArch: Shader 1 finished CTA #1 (21781,0), 2 CTAs running
GPGPU-Sim uArch: core:  1, cta: 1 initialized @(21782,0)
GPGPU-Sim uArch: Shader 14 finished CTA #0 (21799,0), 2 CTAs running
GPGPU-Sim uArch: core: 14, cta: 0 initialized @(21800,0)
GPGPU-Sim uArch: Shader 9 finished CTA #0 (21825,0), 2 CTAs running
GPGPU-Sim uArch: core:  9, cta: 0 initialized @(21826,0)
GPGPU-Sim PTX: 14900000 instructions simulated : ctaid=(238,0,0) tid=(417,0,0)
GPGPU-Sim uArch: Shader 0 finished CTA #0 (21950,0), 2 CTAs running
GPGPU-Sim uArch: core:  0, cta: 0 initialized @(21951,0)
GPGPU-Sim uArch: Shader 11 finished CTA #1 (21955,0), 2 CTAs running
GPGPU-Sim uArch: core: 11, cta: 1 initialized @(21956,0)
GPGPU-Sim uArch: Shader 8 finished CTA #1 (22030,0), 2 CTAs running
GPGPU-Sim uArch: core:  8, cta: 1 initialized @(22031,0)
GPGPU-Sim PTX: 15000000 instructions simulated : ctaid=(232,0,0) tid=(462,0,0)
GPGPU-Sim uArch: Shader 4 finished CTA #1 (22060,0), 2 CTAs running
GPGPU-Sim uArch: core:  4, cta: 1 initialized @(22061,0)
GPGPU-Sim uArch: Shader 3 finished CTA #1 (22137,0), 2 CTAs running
GPGPU-Sim uArch: core:  3, cta: 1 initialized @(22138,0)
GPGPU-Sim PTX: 15100000 instructions simulated : ctaid=(220,0,0) tid=(251,0,0)
GPGPU-Sim uArch: Shader 12 finished CTA #1 (22180,0), 2 CTAs running
GPGPU-Sim uArch: core: 12, cta: 1 initialized @(22181,0)
GPGPU-Sim PTX: 15200000 instructions simulated : ctaid=(226,0,0) tid=(366,0,0)
GPGPU-Sim uArch: Shader 6 finished CTA #1 (22364,0), 2 CTAs running
GPGPU-Sim uArch: core:  6, cta: 1 initialized @(22365,0)
GPGPU-Sim uArch: Shader 1 finished CTA #2 (22379,0), 2 CTAs running
GPGPU-Sim uArch: core:  1, cta: 2 initialized @(22380,0)
GPGPU-Sim uArch: Shader 2 finished CTA #2 (22437,0), 2 CTAs running
GPGPU-Sim uArch: core:  2, cta: 2 initialized @(22438,0)
GPGPU-Sim uArch: Shader 10 finished CTA #1 (22441,0), 2 CTAs running
GPGPU-Sim uArch: core: 10, cta: 1 initialized @(22442,0)
GPGPU-Sim uArch: Shader 7 finished CTA #1 (22443,0), 2 CTAs running
GPGPU-Sim uArch: core:  7, cta: 1 initialized @(22444,0)
GPGPU-Sim PTX: 15300000 instructions simulated : ctaid=(250,0,0) tid=(290,0,0)
GPGPU-Sim uArch: Shader 13 finished CTA #1 (22475,0), 2 CTAs running
GPGPU-Sim uArch: core: 13, cta: 1 initialized @(22476,0)
GPGPU-Sim uArch: cycles simulated: 22500  inst.: 14617941 (ipc=649.7) sim_rate=769365 (inst/sec) elapsed = 0:0:00:19 / Sun Jan 27 01:51:05 2019
GPGPU-Sim uArch: Shader 9 finished CTA #1 (22577,0), 2 CTAs running
GPGPU-Sim uArch: core:  9, cta: 1 initialized @(22578,0)
GPGPU-Sim PTX: 15400000 instructions simulated : ctaid=(226,0,0) tid=(35,0,0)
GPGPU-Sim uArch: Shader 14 finished CTA #1 (22613,0), 2 CTAs running
GPGPU-Sim uArch: core: 14, cta: 1 initialized @(22614,0)
GPGPU-Sim uArch: Shader 5 finished CTA #2 (22680,0), 2 CTAs running
GPGPU-Sim uArch: core:  5, cta: 2 initialized @(22681,0)
GPGPU-Sim PTX: 15500000 instructions simulated : ctaid=(219,0,0) tid=(229,0,0)
GPGPU-Sim uArch: Shader 0 finished CTA #2 (22720,0), 2 CTAs running
GPGPU-Sim uArch: core:  0, cta: 2 initialized @(22721,0)
GPGPU-Sim uArch: Shader 4 finished CTA #2 (22784,0), 2 CTAs running
GPGPU-Sim uArch: core:  4, cta: 2 initialized @(22785,0)
GPGPU-Sim uArch: Shader 11 finished CTA #2 (22793,0), 2 CTAs running
GPGPU-Sim uArch: core: 11, cta: 2 initialized @(22794,0)
GPGPU-Sim uArch: Shader 8 finished CTA #2 (22816,0), 2 CTAs running
GPGPU-Sim uArch: core:  8, cta: 2 initialized @(22817,0)
GPGPU-Sim PTX: 15600000 instructions simulated : ctaid=(258,0,0) tid=(21,0,0)
GPGPU-Sim uArch: Shader 3 finished CTA #2 (22941,0), 2 CTAs running
GPGPU-Sim uArch: core:  3, cta: 2 initialized @(22942,0)
GPGPU-Sim PTX: 15700000 instructions simulated : ctaid=(231,0,0) tid=(180,0,0)
GPGPU-Sim uArch: Shader 6 finished CTA #2 (22965,0), 2 CTAs running
GPGPU-Sim uArch: core:  6, cta: 2 initialized @(22966,0)
GPGPU-Sim uArch: Shader 10 finished CTA #2 (23024,0), 2 CTAs running
GPGPU-Sim uArch: core: 10, cta: 2 initialized @(23025,0)
GPGPU-Sim uArch: Shader 12 finished CTA #2 (23071,0), 2 CTAs running
GPGPU-Sim uArch: core: 12, cta: 2 initialized @(23072,0)
GPGPU-Sim uArch: Shader 7 finished CTA #2 (23077,0), 2 CTAs running
GPGPU-Sim uArch: core:  7, cta: 2 initialized @(23078,0)
GPGPU-Sim PTX: 15800000 instructions simulated : ctaid=(247,0,0) tid=(393,0,0)
GPGPU-Sim uArch: Shader 13 finished CTA #2 (23140,0), 2 CTAs running
GPGPU-Sim uArch: core: 13, cta: 2 initialized @(23141,0)
GPGPU-Sim PTX: 15900000 instructions simulated : ctaid=(233,0,0) tid=(57,0,0)
GPGPU-Sim uArch: Shader 9 finished CTA #2 (23251,0), 2 CTAs running
GPGPU-Sim uArch: core:  9, cta: 2 initialized @(23252,0)
GPGPU-Sim PTX: 16000000 instructions simulated : ctaid=(233,0,0) tid=(365,0,0)
GPGPU-Sim uArch: Shader 14 finished CTA #2 (23363,0), 2 CTAs running
GPGPU-Sim uArch: core: 14, cta: 2 initialized @(23364,0)
GPGPU-Sim PTX: 16100000 instructions simulated : ctaid=(226,0,0) tid=(265,0,0)
GPGPU-Sim uArch: cycles simulated: 23500  inst.: 15350074 (ipc=653.2) sim_rate=767503 (inst/sec) elapsed = 0:0:00:20 / Sun Jan 27 01:51:06 2019
GPGPU-Sim PTX: 16200000 instructions simulated : ctaid=(235,0,0) tid=(17,0,0)
GPGPU-Sim PTX: 16300000 instructions simulated : ctaid=(237,0,0) tid=(459,0,0)
GPGPU-Sim PTX: 16400000 instructions simulated : ctaid=(267,0,0) tid=(352,0,0)
GPGPU-Sim PTX: 16500000 instructions simulated : ctaid=(244,0,0) tid=(175,0,0)
GPGPU-Sim PTX: 16600000 instructions simulated : ctaid=(227,0,0) tid=(14,0,0)
GPGPU-Sim uArch: Shader 2 finished CTA #0 (24144,0), 2 CTAs running
GPGPU-Sim uArch: core:  2, cta: 0 initialized @(24145,0)
GPGPU-Sim PTX: 16700000 instructions simulated : ctaid=(235,0,0) tid=(173,0,0)
GPGPU-Sim uArch: Shader 1 finished CTA #0 (24256,0), 2 CTAs running
GPGPU-Sim uArch: core:  1, cta: 0 initialized @(24257,0)
GPGPU-Sim uArch: Shader 8 finished CTA #0 (24339,0), 2 CTAs running
GPGPU-Sim uArch: core:  8, cta: 0 initialized @(24340,0)
GPGPU-Sim PTX: 16800000 instructions simulated : ctaid=(246,0,0) tid=(46,0,0)
GPGPU-Sim uArch: Shader 11 finished CTA #0 (24476,0), 2 CTAs running
GPGPU-Sim uArch: core: 11, cta: 0 initialized @(24477,0)
GPGPU-Sim uArch: cycles simulated: 24500  inst.: 16091825 (ipc=656.8) sim_rate=766277 (inst/sec) elapsed = 0:0:00:21 / Sun Jan 27 01:51:07 2019
GPGPU-Sim PTX: 16900000 instructions simulated : ctaid=(266,0,0) tid=(122,0,0)
GPGPU-Sim PTX: 17000000 instructions simulated : ctaid=(253,0,0) tid=(250,0,0)
GPGPU-Sim uArch: Shader 12 finished CTA #0 (24754,0), 2 CTAs running
GPGPU-Sim uArch: core: 12, cta: 0 initialized @(24755,0)
GPGPU-Sim PTX: 17100000 instructions simulated : ctaid=(243,0,0) tid=(302,0,0)
GPGPU-Sim uArch: Shader 3 finished CTA #0 (24775,0), 2 CTAs running
GPGPU-Sim uArch: core:  3, cta: 0 initialized @(24776,0)
GPGPU-Sim PTX: 17200000 instructions simulated : ctaid=(237,0,0) tid=(230,0,0)
GPGPU-Sim uArch: Shader 6 finished CTA #0 (24909,0), 2 CTAs running
GPGPU-Sim uArch: core:  6, cta: 0 initialized @(24910,0)
GPGPU-Sim uArch: Shader 4 finished CTA #0 (24911,0), 2 CTAs running
GPGPU-Sim uArch: core:  4, cta: 0 initialized @(24912,0)
GPGPU-Sim uArch: Shader 7 finished CTA #0 (25031,0), 2 CTAs running
GPGPU-Sim uArch: core:  7, cta: 0 initialized @(25032,0)
GPGPU-Sim PTX: 17300000 instructions simulated : ctaid=(268,0,0) tid=(464,0,0)
GPGPU-Sim PTX: 17400000 instructions simulated : ctaid=(239,0,0) tid=(277,0,0)
GPGPU-Sim uArch: Shader 5 finished CTA #0 (25188,0), 2 CTAs running
GPGPU-Sim uArch: core:  5, cta: 0 initialized @(25189,0)
GPGPU-Sim uArch: Shader 0 finished CTA #1 (25292,0), 2 CTAs running
GPGPU-Sim uArch: core:  0, cta: 1 initialized @(25293,0)
GPGPU-Sim uArch: Shader 13 finished CTA #0 (25304,0), 2 CTAs running
GPGPU-Sim uArch: core: 13, cta: 0 initialized @(25305,0)
GPGPU-Sim PTX: 17500000 instructions simulated : ctaid=(249,0,0) tid=(473,0,0)
GPGPU-Sim PTX: 17600000 instructions simulated : ctaid=(269,0,0) tid=(134,0,0)
GPGPU-Sim uArch: Shader 14 finished CTA #0 (25442,0), 2 CTAs running
GPGPU-Sim uArch: core: 14, cta: 0 initialized @(25443,0)
GPGPU-Sim uArch: Shader 10 finished CTA #0 (25479,0), 2 CTAs running
GPGPU-Sim uArch: core: 10, cta: 0 initialized @(25480,0)
GPGPU-Sim uArch: cycles simulated: 25500  inst.: 16810811 (ipc=659.2) sim_rate=764127 (inst/sec) elapsed = 0:0:00:22 / Sun Jan 27 01:51:08 2019
GPGPU-Sim uArch: Shader 5 finished CTA #1 (25509,0), 2 CTAs running
GPGPU-Sim uArch: core:  5, cta: 1 initialized @(25510,0)
GPGPU-Sim PTX: 17700000 instructions simulated : ctaid=(248,0,0) tid=(298,0,0)
GPGPU-Sim uArch: Shader 9 finished CTA #0 (25619,0), 2 CTAs running
GPGPU-Sim uArch: core:  9, cta: 0 initialized @(25620,0)
GPGPU-Sim uArch: Shader 1 finished CTA #1 (25672,0), 2 CTAs running
GPGPU-Sim uArch: core:  1, cta: 1 initialized @(25673,0)
GPGPU-Sim PTX: 17800000 instructions simulated : ctaid=(245,0,0) tid=(242,0,0)
GPGPU-Sim uArch: Shader 2 finished CTA #1 (25774,0), 2 CTAs running
GPGPU-Sim uArch: core:  2, cta: 1 initialized @(25775,0)
GPGPU-Sim PTX: 17900000 instructions simulated : ctaid=(261,0,0) tid=(98,0,0)
GPGPU-Sim uArch: Shader 11 finished CTA #1 (25918,0), 2 CTAs running
GPGPU-Sim uArch: core: 11, cta: 1 initialized @(25919,0)
GPGPU-Sim PTX: 18000000 instructions simulated : ctaid=(285,0,0) tid=(273,0,0)
GPGPU-Sim uArch: Shader 8 finished CTA #1 (25990,0), 2 CTAs running
GPGPU-Sim uArch: core:  8, cta: 1 initialized @(25991,0)
GPGPU-Sim uArch: Shader 4 finished CTA #1 (26108,0), 2 CTAs running
GPGPU-Sim uArch: core:  4, cta: 1 initialized @(26109,0)
GPGPU-Sim uArch: Shader 0 finished CTA #0 (26118,0), 2 CTAs running
GPGPU-Sim uArch: core:  0, cta: 0 initialized @(26119,0)
GPGPU-Sim PTX: 18100000 instructions simulated : ctaid=(263,0,0) tid=(6,0,0)
GPGPU-Sim uArch: Shader 3 finished CTA #1 (26122,0), 2 CTAs running
GPGPU-Sim uArch: core:  3, cta: 1 initialized @(26123,0)
GPGPU-Sim uArch: Shader 12 finished CTA #1 (26204,0), 2 CTAs running
GPGPU-Sim uArch: core: 12, cta: 1 initialized @(26205,0)
GPGPU-Sim PTX: 18200000 instructions simulated : ctaid=(256,0,0) tid=(217,0,0)
GPGPU-Sim uArch: Shader 7 finished CTA #1 (26333,0), 2 CTAs running
GPGPU-Sim uArch: core:  7, cta: 1 initialized @(26334,0)
GPGPU-Sim uArch: Shader 6 finished CTA #1 (26345,0), 2 CTAs running
GPGPU-Sim uArch: core:  6, cta: 1 initialized @(26346,0)
GPGPU-Sim PTX: 18300000 instructions simulated : ctaid=(262,0,0) tid=(492,0,0)
GPGPU-Sim uArch: Shader 10 finished CTA #1 (26384,0), 2 CTAs running
GPGPU-Sim uArch: core: 10, cta: 1 initialized @(26385,0)
GPGPU-Sim uArch: Shader 13 finished CTA #1 (26452,0), 2 CTAs running
GPGPU-Sim uArch: core: 13, cta: 1 initialized @(26453,0)
GPGPU-Sim uArch: cycles simulated: 26500  inst.: 17523622 (ipc=661.3) sim_rate=761896 (inst/sec) elapsed = 0:0:00:23 / Sun Jan 27 01:51:09 2019
GPGPU-Sim uArch: Shader 1 finished CTA #2 (26513,0), 2 CTAs running
GPGPU-Sim PTX: 18400000 instructions simulated : ctaid=(272,0,0) tid=(108,0,0)
GPGPU-Sim uArch: core:  1, cta: 2 initialized @(26514,0)
GPGPU-Sim uArch: Shader 9 finished CTA #1 (26516,0), 2 CTAs running
GPGPU-Sim uArch: core:  9, cta: 1 initialized @(26517,0)
GPGPU-Sim uArch: Shader 2 finished CTA #2 (26532,0), 2 CTAs running
GPGPU-Sim uArch: core:  2, cta: 2 initialized @(26533,0)
GPGPU-Sim PTX: 18500000 instructions simulated : ctaid=(263,0,0) tid=(137,0,0)
GPGPU-Sim uArch: Shader 5 finished CTA #2 (26753,0), 2 CTAs running
GPGPU-Sim uArch: core:  5, cta: 2 initialized @(26754,0)
GPGPU-Sim PTX: 18600000 instructions simulated : ctaid=(274,0,0) tid=(200,0,0)
GPGPU-Sim uArch: Shader 14 finished CTA #1 (26780,0), 2 CTAs running
GPGPU-Sim uArch: core: 14, cta: 1 initialized @(26781,0)
GPGPU-Sim uArch: Shader 8 finished CTA #2 (26791,0), 2 CTAs running
GPGPU-Sim uArch: core:  8, cta: 2 initialized @(26792,0)
GPGPU-Sim uArch: Shader 0 finished CTA #2 (26803,0), 2 CTAs running
GPGPU-Sim uArch: core:  0, cta: 2 initialized @(26804,0)
GPGPU-Sim uArch: Shader 4 finished CTA #2 (26827,0), 2 CTAs running
GPGPU-Sim uArch: core:  4, cta: 2 initialized @(26828,0)
GPGPU-Sim uArch: Shader 11 finished CTA #2 (26837,0), 2 CTAs running
GPGPU-Sim uArch: core: 11, cta: 2 initialized @(26838,0)
GPGPU-Sim PTX: 18700000 instructions simulated : ctaid=(267,0,0) tid=(51,0,0)
GPGPU-Sim uArch: Shader 12 finished CTA #2 (27012,0), 2 CTAs running
GPGPU-Sim uArch: core: 12, cta: 2 initialized @(27013,0)
GPGPU-Sim uArch: Shader 3 finished CTA #2 (27019,0), 2 CTAs running
GPGPU-Sim uArch: core:  3, cta: 2 initialized @(27020,0)
GPGPU-Sim PTX: 18800000 instructions simulated : ctaid=(271,0,0) tid=(489,0,0)
GPGPU-Sim uArch: Shader 6 finished CTA #2 (27046,0), 2 CTAs running
GPGPU-Sim uArch: core:  6, cta: 2 initialized @(27047,0)
GPGPU-Sim PTX: 18900000 instructions simulated : ctaid=(299,0,0) tid=(477,0,0)
GPGPU-Sim uArch: Shader 13 finished CTA #2 (27205,0), 2 CTAs running
GPGPU-Sim uArch: core: 13, cta: 2 initialized @(27206,0)
GPGPU-Sim uArch: Shader 7 finished CTA #2 (27208,0), 2 CTAs running
GPGPU-Sim uArch: core:  7, cta: 2 initialized @(27209,0)
GPGPU-Sim uArch: Shader 14 finished CTA #2 (27262,0), 2 CTAs running
GPGPU-Sim uArch: core: 14, cta: 2 initialized @(27263,0)
GPGPU-Sim PTX: 19000000 instructions simulated : ctaid=(295,0,0) tid=(420,0,0)
GPGPU-Sim uArch: Shader 10 finished CTA #2 (27279,0), 2 CTAs running
GPGPU-Sim uArch: core: 10, cta: 2 initialized @(27280,0)
GPGPU-Sim PTX: 19100000 instructions simulated : ctaid=(312,0,0) tid=(173,0,0)
GPGPU-Sim uArch: cycles simulated: 27500  inst.: 18265378 (ipc=664.2) sim_rate=761057 (inst/sec) elapsed = 0:0:00:24 / Sun Jan 27 01:51:10 2019
GPGPU-Sim uArch: Shader 9 finished CTA #2 (27507,0), 2 CTAs running
GPGPU-Sim uArch: core:  9, cta: 2 initialized @(27508,0)
GPGPU-Sim PTX: 19200000 instructions simulated : ctaid=(306,0,0) tid=(365,0,0)
GPGPU-Sim PTX: 19300000 instructions simulated : ctaid=(308,0,0) tid=(168,0,0)
GPGPU-Sim PTX: 19400000 instructions simulated : ctaid=(278,0,0) tid=(334,0,0)
GPGPU-Sim PTX: 19500000 instructions simulated : ctaid=(295,0,0) tid=(279,0,0)
GPGPU-Sim uArch: Shader 2 finished CTA #0 (27997,0), 2 CTAs running
GPGPU-Sim uArch: core:  2, cta: 0 initialized @(27998,0)
GPGPU-Sim PTX: 19600000 instructions simulated : ctaid=(290,0,0) tid=(48,0,0)
GPGPU-Sim uArch: Shader 1 finished CTA #0 (28140,0), 2 CTAs running
GPGPU-Sim uArch: core:  1, cta: 0 initialized @(28141,0)
GPGPU-Sim PTX: 19700000 instructions simulated : ctaid=(302,0,0) tid=(412,0,0)
GPGPU-Sim uArch: Shader 8 finished CTA #0 (28235,0), 2 CTAs running
GPGPU-Sim uArch: core:  8, cta: 0 initialized @(28236,0)
GPGPU-Sim uArch: Shader 11 finished CTA #0 (28296,0), 2 CTAs running
GPGPU-Sim uArch: core: 11, cta: 0 initialized @(28297,0)
GPGPU-Sim PTX: 19800000 instructions simulated : ctaid=(294,0,0) tid=(220,0,0)
GPGPU-Sim PTX: 19900000 instructions simulated : ctaid=(289,0,0) tid=(17,0,0)
GPGPU-Sim uArch: cycles simulated: 28500  inst.: 19002105 (ipc=666.7) sim_rate=760084 (inst/sec) elapsed = 0:0:00:25 / Sun Jan 27 01:51:11 2019
GPGPU-Sim uArch: Shader 12 finished CTA #0 (28504,0), 2 CTAs running
GPGPU-Sim uArch: core: 12, cta: 0 initialized @(28505,0)
GPGPU-Sim PTX: 20000000 instructions simulated : ctaid=(284,0,0) tid=(206,0,0)
GPGPU-Sim uArch: Shader 6 finished CTA #0 (28594,0), 2 CTAs running
GPGPU-Sim uArch: core:  6, cta: 0 initialized @(28595,0)
GPGPU-Sim uArch: Shader 3 finished CTA #0 (28631,0), 2 CTAs running
GPGPU-Sim uArch: core:  3, cta: 0 initialized @(28632,0)
GPGPU-Sim uArch: Shader 4 finished CTA #0 (28691,0), 2 CTAs running
GPGPU-Sim uArch: core:  4, cta: 0 initialized @(28692,0)
GPGPU-Sim PTX: 20100000 instructions simulated : ctaid=(290,0,0) tid=(242,0,0)
GPGPU-Sim uArch: Shader 7 finished CTA #0 (28781,0), 2 CTAs running
GPGPU-Sim uArch: core:  7, cta: 0 initialized @(28782,0)
GPGPU-Sim uArch: Shader 5 finished CTA #0 (28817,0), 2 CTAs running
GPGPU-Sim uArch: core:  5, cta: 0 initialized @(28818,0)
GPGPU-Sim PTX: 20200000 instructions simulated : ctaid=(303,0,0) tid=(180,0,0)
GPGPU-Sim PTX: 20300000 instructions simulated : ctaid=(302,0,0) tid=(508,0,0)
GPGPU-Sim uArch: Shader 13 finished CTA #0 (29045,0), 2 CTAs running
GPGPU-Sim uArch: core: 13, cta: 0 initialized @(29046,0)
GPGPU-Sim uArch: Shader 0 finished CTA #1 (29084,0), 2 CTAs running
GPGPU-Sim uArch: core:  0, cta: 1 initialized @(29085,0)
GPGPU-Sim PTX: 20400000 instructions simulated : ctaid=(320,0,0) tid=(313,0,0)
GPGPU-Sim PTX: 20500000 instructions simulated : ctaid=(314,0,0) tid=(145,0,0)
GPGPU-Sim uArch: Shader 14 finished CTA #0 (29261,0), 2 CTAs running
GPGPU-Sim uArch: core: 14, cta: 0 initialized @(29262,0)
GPGPU-Sim uArch: Shader 10 finished CTA #0 (29325,0), 2 CTAs running
GPGPU-Sim uArch: core: 10, cta: 0 initialized @(29326,0)
GPGPU-Sim PTX: 20600000 instructions simulated : ctaid=(289,0,0) tid=(55,0,0)
GPGPU-Sim uArch: Shader 9 finished CTA #0 (29460,0), 2 CTAs running
GPGPU-Sim uArch: core:  9, cta: 0 initialized @(29461,0)
GPGPU-Sim PTX: 20700000 instructions simulated : ctaid=(322,0,0) tid=(137,0,0)
GPGPU-Sim uArch: cycles simulated: 29500  inst.: 19730707 (ipc=668.8) sim_rate=758873 (inst/sec) elapsed = 0:0:00:26 / Sun Jan 27 01:51:12 2019
GPGPU-Sim uArch: Shader 5 finished CTA #1 (29533,0), 2 CTAs running
GPGPU-Sim uArch: core:  5, cta: 1 initialized @(29534,0)
GPGPU-Sim uArch: Shader 1 finished CTA #1 (29577,0), 2 CTAs running
[...]
gpgpu_stall_shd_mem[g_mem_st][icnt_rc] = 0
gpgpu_stall_shd_mem[g_mem_st][wb_icnt_rc] = 0
gpgpu_stall_shd_mem[g_mem_st][wb_rsrv_fail] = 0
gpgpu_stall_shd_mem[l_mem_ld][mshr_rc] = 0
gpgpu_stall_shd_mem[l_mem_ld][icnt_rc] = 0
gpgpu_stall_shd_mem[l_mem_ld][wb_icnt_rc] = 0
gpgpu_stall_shd_mem[l_mem_ld][wb_rsrv_fail] = 0
gpgpu_stall_shd_mem[l_mem_st][mshr_rc] = 0
gpgpu_stall_shd_mem[l_mem_st][icnt_rc] = 0
gpgpu_stall_shd_mem[l_mem_ld][wb_icnt_rc] = 0
gpgpu_stall_shd_mem[l_mem_ld][wb_rsrv_fail] = 0
gpu_reg_bank_conflict_stalls = 0
Warp Occupancy Distribution:
Stall:93304	W0_Idle:97096	W0_Scoreboard:378426	W1:13678	W2:7816	W3:0	W4:7816	W5:0	W6:0	W7:0	W8:7816	W9:0	W10:0	W11:0	W12:0	W13:0	W14:0	W15:0	W16:7816	W17:0	W18:0	W19:0	W20:0	W21:0	W22:0	W23:0	W24:0	W25:0	W26:0	W27:0	W28:0	W29:0	W30:0	W31:0	W32:2024274
traffic_breakdown_coretomem[CONST_ACC_R] = 120 {8:15,}
traffic_breakdown_coretomem[GLOBAL_ACC_R] = 250000 {8:31250,}
traffic_breakdown_coretomem[GLOBAL_ACC_W] = 39080 {40:977,}
traffic_breakdown_coretomem[INST_ACC_R] = 600 {8:75,}
traffic_breakdown_memtocore[CONST_ACC_R] = 1080 {72:15,}
traffic_breakdown_memtocore[GLOBAL_ACC_R] = 4250000 {136:31250,}
traffic_breakdown_memtocore[GLOBAL_ACC_W] = 7816 {8:977,}
traffic_breakdown_memtocore[INST_ACC_R] = 10200 {136:75,}
maxmrqlatency = 218 
maxdqlatency = 0 
maxmflatency = 758 
averagemflatency = 279 
max_icnt2mem_latency = 221 
max_icnt2sh_latency = 88706 
mrq_lat_table:26259 	2181 	1029 	680 	695 	304 	197 	37 	0 	0 	0 	0 	0 	0 	0 	0 	0 	0 	0 	0 	0 	0 	0 	0 	0 	0 	0 	0 	0 	0 	0 	0 	
dq_lat_table:0 	0 	0 	0 	0 	0 	0 	0 	0 	0 	0 	0 	0 	0 	0 	0 	0 	0 	0 	0 	0 	0 	0 	0 	0 	0 	0 	0 	0 	0 	0 	0 	
mf_lat_table:0 	0 	0 	0 	0 	0 	0 	933 	30956 	353 	0 	0 	0 	0 	0 	0 	0 	0 	0 	0 	0 	0 	0 	0 	0 	0 	0 	0 	0 	0 	0 	0 	
icnt2mem_lat_table:0 	0 	0 	31214 	578 	290 	214 	21 	0 	0 	0 	0 	0 	0 	0 	0 	0 	0 	0 	0 	0 	0 	0 	0 	
icnt2sh_lat_table:0 	0 	0 	12791 	13097 	4976 	400 	1 	0 	0 	0 	0 	45 	90 	190 	378 	274 	0 	0 	0 	0 	0 	0 	0 	
mf_lat_pw_table:0 	0 	0 	0 	0 	0 	0 	14 	155 	0 	0 	0 	0 	0 	0 	0 	0 	0 	0 	0 	0 	0 	0 	0 	0 	0 	0 	0 	0 	0 	0 	0 	
maximum concurrent accesses to same row:
dram[0]:        32        32        32        32        32        32        32        32        32        32        32        32        32        32        32        32 
dram[1]:        32        32        32        32        32        32        32        32        32        32        32        32        32        32        32        32 
dram[2]:        32        32        32        32        32        32        32        32        32        32        32        32        32        32        32        32 
dram[3]:        32        32        32        32        32        32        32        32        32        32        32        32        32        32        32        32 
dram[4]:        32        32        32        32        32        32        32        32        32        32        32        32        32        32        32        32 
dram[5]:        32        32        32        32        32        32        32        32        32        32        32        32        32        32        32        32 
maximum service time to same row:
dram[0]:      8689      8666      9219      9222     11323     11347      9084      9005      9171      9170      9588      9635     12357     12390      8587      8483 
dram[1]:      8687      8669      9220      9270     11319     11319      9086      9059      9172      9277      9590      9659     12346     12419      8582      8431 
dram[2]:      8634      8662      9224      9223     11317     10967      9082      9064      9268      9162      9598      9595     12386     12449      8583      8453 
dram[3]:      8590      8647      9259      9231     11321     10927      9081      9080      9272      8818      9590      9595     12385     12514      8581      8454 
dram[4]:      8672      8674      9187      9231     11334     10907      9024      9079      9228      8843      9592      9615     12377     12517      8530      8465 
dram[5]:      8630      8723      9170      9196     11345     10917      9024      9131      9129      9264      9600      9600     12373     12512      8482      8462 
average row accesses per activate:
dram[0]: 24.846153 32.000000 32.000000 32.000000 30.000000 30.000000 32.000000 32.000000 25.461538 25.461538 32.000000 32.000000 32.000000 32.000000 32.000000 32.000000 
dram[1]: 29.272728 32.000000 32.000000 32.000000 30.000000 30.000000 32.000000 32.000000 20.687500 22.133333 32.000000 32.000000 32.000000 32.000000 32.000000 32.000000 
dram[2]: 29.181818 32.000000 32.000000 32.000000 30.000000 30.181818 32.000000 32.000000 22.133333 27.250000 32.000000 32.000000 32.000000 32.000000 32.000000 32.000000 
dram[3]: 32.000000 32.000000 32.000000 32.000000 30.000000 30.181818 32.000000 32.000000 25.384615 26.000000 32.000000 32.000000 32.000000 32.000000 32.000000 32.000000 
dram[4]: 32.000000 32.000000 32.000000 32.000000 30.000000 30.181818 32.000000 32.000000 20.750000 19.764706 32.000000 32.000000 32.000000 32.000000 32.000000 32.000000 
dram[5]: 32.000000 32.000000 32.000000 32.000000 30.000000 30.181818 32.000000 32.000000 22.000000 22.266666 32.000000 32.000000 32.000000 32.000000 32.000000 32.000000 
average row locality = 31382/1042 = 30.117083
number of total memory accesses made:
dram[0]:         0         0         0         0         0         0         0         0         0         0         0         0         0         0         0         0 
dram[1]:         0         0         0         0         0         0         0         0         0         0         0         0         0         0         0         0 
dram[2]:         0         0         0         0         0         0         0         0         0         0         0         0         0         0         0         0 
dram[3]:         0         0         0         0         0         0         0         0         0         0         0         0         0         0         0         0 
dram[4]:         0         0         0         0         0         0         0         0         0         0         0         0         0         0         0         0 
dram[5]:         0         0         0         0         0         0         0         0         0         0         0         0         0         0         0         0 
total accesses: 0
min_bank_accesses = 0!
min_chip_accesses = 0!
number of total read accesses:
dram[0]:       323       320       320       320       330       330       352       352       325       324       320       320       320       320       320       320 
dram[1]:       322       320       320       320       330       330       352       352       324       324       320       320       320       320       320       320 
dram[2]:       321       320       320       320       330       332       352       352       324       324       320       320       320       320       320       320 
dram[3]:       320       320       320       320       330       332       352       352       324       324       320       320       320       320       320       320 
dram[4]:       320       320       320       320       330       332       352       352       324       324       320       320       320       320       320       320 
dram[5]:       320       320       320       320       330       332       352       352       324       324       320       320       320       320       320       320 
total reads: 31287
bank skew: 352/320 = 1.10
chip skew: 5216/5214 = 1.00
number of total write accesses:
dram[0]:         0         0         0         0         0         0         0         0         6         7         0         0         0         0         0         0 
dram[1]:         0         0         0         0         0         0         0         0         7         8         0         0         0         0         0         0 
dram[2]:         0         0         0         0         0         0         0         0         8         3         0         0         0         0         0         0 
dram[3]:         0         0         0         0         0         0         0         0         6        14         0         0         0         0         0         0 
dram[4]:         0         0         0         0         0         0         0         0         8        12         0         0         0         0         0         0 
dram[5]:         0         0         0         0         0         0         0         0         6        10         0         0         0         0         0         0 
total reads: 95
min_bank_accesses = 0!
chip skew: 20/11 = 1.82
average mf latency per bank:
dram[0]:        294       285       284       282       274       277       287       293       313       304       281       281       283       282       286       287
dram[1]:        280       274       276       271       274       273       289       290       310       305       286       284       286       282       283       277
dram[2]:        276       273       278       279       275       275       290       293       304       308       283       291       285       283       280       278
dram[3]:        277       284       277       284       275       276       291       293       308       327       283       288       287       281       282       285
dram[4]:        275       277       274       275       277       277       294       296       315       333       290       290       290       282       279       280
dram[5]:        284       286       284       284       278       277       288       293       307       334       282       289       289       284       286       287
maximum mf latency per bank:
dram[0]:        504       495       503       539       553       533       594       562       588       530       581       556       682       612       539       554
dram[1]:        441       416       505       457       497       371       646       655       622       485       638       575       701       649       487       419
dram[2]:        438       373       550       493       544       428       645       587       639       583       598       693       705       758       485       410
dram[3]:        422       456       465       507       545       495       637       687       583       479       501       547       715       597       485       539
dram[4]:        412       374       395       496       475       439       684       625       691       436       663       557       732       602       410       375
dram[5]:        479       457       508       555       485       438       683       671       657       468       533       559       719       606       552       490
Memory Partition 0: 
Cache L2_bank_000:
MSHR contents

Cache L2_bank_001:
MSHR contents

In Dram Latency Queue (total = 0): 
DRAM[0]: 16 bks, busW=4 BL=8 CL=12, tRRD=2 tCCD=6, tRCD=12 tRAS=28 tRP=12 tRC=40
n_cmd=117092 n_nop=106313 n_act=173 n_pre=157 n_req=5229 n_rd=10432 n_write=17 bw_util=0.1785
n_activity=55242 dram_eff=0.3783
bk0: 646a 115205i bk1: 640a 115092i bk2: 640a 114880i bk3: 640a 114809i bk4: 660a 114955i bk5: 660a 114830i bk6: 704a 114768i bk7: 704a 114408i bk8: 650a 115052i bk9: 648a 114908i bk10: 640a 115008i bk11: 640a 114708i bk12: 640a 114932i bk13: 640a 114591i bk14: 640a 115036i bk15: 640a 114813i 
dram_util_bins: 0 0 0 0 0 0 0 0 0 0
dram_eff_bins: 0 0 0 0 0 0 0 0 0 0
mrqq: max=16 avg=0.120316
Memory Partition 1: 
Cache L2_bank_002:
MSHR contents

Cache L2_bank_003:
MSHR contents

In Dram Latency Queue (total = 0): 
DRAM[1]: 16 bks, busW=4 BL=8 CL=12, tRRD=2 tCCD=6, tRCD=12 tRAS=28 tRP=12 tRC=40
n_cmd=117092 n_nop=106309 n_act=176 n_pre=160 n_req=5229 n_rd=10428 n_write=19 bw_util=0.1784
n_activity=55094 dram_eff=0.3792
bk0: 644a 115266i bk1: 640a 115164i bk2: 640a 115062i bk3: 640a 115008i bk4: 660a 115069i bk5: 660a 114968i bk6: 704a 114864i bk7: 704a 114394i bk8: 648a 114948i bk9: 648a 114714i bk10: 640a 114716i bk11: 640a 114518i bk12: 640a 114970i bk13: 640a 114572i bk14: 640a 115122i bk15: 640a 114889i 
dram_util_bins: 0 0 0 0 0 0 0 0 0 0
dram_eff_bins: 0 0 0 0 0 0 0 0 0 0
mrqq: max=16 avg=0.0911249
Memory Partition 2: 
Cache L2_bank_004:
MSHR contents

Cache L2_bank_005:
MSHR contents

In Dram Latency Queue (total = 0): 
DRAM[2]: 16 bks, busW=4 BL=8 CL=12, tRRD=2 tCCD=6, tRCD=12 tRAS=28 tRP=12 tRC=40
n_cmd=117092 n_nop=106320 n_act=172 n_pre=156 n_req=5226 n_rd=10430 n_write=14 bw_util=0.1784
n_activity=54650 dram_eff=0.3822
bk0: 642a 115306i bk1: 640a 115066i bk2: 640a 115015i bk3: 640a 114698i bk4: 660a 114961i bk5: 664a 114915i bk6: 704a 114880i bk7: 704a 114356i bk8: 648a 114909i bk9: 648a 114699i bk10: 640a 114777i bk11: 640a 114548i bk12: 640a 114676i bk13: 640a 114650i bk14: 640a 115133i bk15: 640a 114854i 
dram_util_bins: 0 0 0 0 0 0 0 0 0 0
dram_eff_bins: 0 0 0 0 0 0 0 0 0 0
mrqq: max=16 avg=0.148388
Memory Partition 3: 
Cache L2_bank_006:
MSHR contents

Cache L2_bank_007:
MSHR contents

In Dram Latency Queue (total = 0): 
DRAM[3]: 16 bks, busW=4 BL=8 CL=12, tRRD=2 tCCD=6, tRCD=12 tRAS=28 tRP=12 tRC=40
n_cmd=117092 n_nop=106316 n_act=170 n_pre=154 n_req=5234 n_rd=10428 n_write=24 bw_util=0.1785
n_activity=54820 dram_eff=0.3813
bk0: 640a 115253i bk1: 640a 114984i bk2: 640a 115043i bk3: 640a 114680i bk4: 660a 115036i bk5: 664a 114819i bk6: 704a 114870i bk7: 704a 114389i bk8: 648a 115010i bk9: 648a 114798i bk10: 640a 114874i bk11: 640a 114507i bk12: 640a 114984i bk13: 640a 114607i bk14: 640a 115126i bk15: 640a 114787i 
dram_util_bins: 0 0 0 0 0 0 0 0 0 0
dram_eff_bins: 0 0 0 0 0 0 0 0 0 0
mrqq: max=16 avg=0.125918
Memory Partition 4: 
Cache L2_bank_008:
MSHR contents

Cache L2_bank_009:
MSHR contents

In Dram Latency Queue (total = 0): 
DRAM[4]: 16 bks, busW=4 BL=8 CL=12, tRRD=2 tCCD=6, tRCD=12 tRAS=28 tRP=12 tRC=40
n_cmd=117092 n_nop=106302 n_act=177 n_pre=161 n_req=5234 n_rd=10428 n_write=24 bw_util=0.1785
n_activity=54567 dram_eff=0.3831
bk0: 640a 115266i bk1: 640a 114995i bk2: 640a 114985i bk3: 640a 114772i bk4: 660a 114990i bk5: 664a 114797i bk6: 704a 114823i bk7: 704a 114377i bk8: 648a 114824i bk9: 648a 114695i bk10: 640a 114859i bk11: 640a 114383i bk12: 640a 114691i bk13: 640a 114603i bk14: 640a 115005i bk15: 640a 114888i 
dram_util_bins: 0 0 0 0 0 0 0 0 0 0
dram_eff_bins: 0 0 0 0 0 0 0 0 0 0
mrqq: max=16 avg=0.127233
Memory Partition 5: 
Cache L2_bank_010:
MSHR contents

Cache L2_bank_011:
MSHR contents

In Dram Latency Queue (total = 0): 
DRAM[5]: 16 bks, busW=4 BL=8 CL=12, tRRD=2 tCCD=6, tRCD=12 tRAS=28 tRP=12 tRC=40
n_cmd=117092 n_nop=106312 n_act=174 n_pre=158 n_req=5230 n_rd=10428 n_write=20 bw_util=0.1785
n_activity=54848 dram_eff=0.381
bk0: 640a 115283i bk1: 640a 114992i bk2: 640a 114948i bk3: 640a 114573i bk4: 660a 114945i bk5: 664a 114724i bk6: 704a 114770i bk7: 704a 114395i bk8: 648a 114938i bk9: 648a 114672i bk10: 640a 114891i bk11: 640a 114562i bk12: 640a 114777i bk13: 640a 114703i bk14: 640a 115173i bk15: 640a 114765i 
dram_util_bins: 0 0 0 0 0 0 0 0 0 0
dram_eff_bins: 0 0 0 0 0 0 0 0 0 0
mrqq: max=16 avg=0.13357

========= L2 cache stats =========
L2_cache_bank[0]: Access = 2730, Miss = 2610, Miss_rate = 0.956, Pending_hits = 10, Reservation_fails = 348
L2_cache_bank[1]: Access = 2668, Miss = 2606, Miss_rate = 0.977, Pending_hits = 3, Reservation_fails = 42
L2_cache_bank[2]: Access = 2698, Miss = 2608, Miss_rate = 0.967, Pending_hits = 7, Reservation_fails = 130
L2_cache_bank[3]: Access = 2668, Miss = 2606, Miss_rate = 0.977, Pending_hits = 4, Reservation_fails = 32
L2_cache_bank[4]: Access = 2683, Miss = 2607, Miss_rate = 0.972, Pending_hits = 5, Reservation_fails = 98
L2_cache_bank[5]: Access = 2670, Miss = 2608, Miss_rate = 0.977, Pending_hits = 0, Reservation_fails = 151
L2_cache_bank[6]: Access = 2668, Miss = 2606, Miss_rate = 0.977, Pending_hits = 2, Reservation_fails = 21
L2_cache_bank[7]: Access = 2732, Miss = 2608, Miss_rate = 0.955, Pending_hits = 8, Reservation_fails = 140
L2_cache_bank[8]: Access = 2668, Miss = 2606, Miss_rate = 0.977, Pending_hits = 4, Reservation_fails = 95
L2_cache_bank[9]: Access = 2732, Miss = 2608, Miss_rate = 0.955, Pending_hits = 6, Reservation_fails = 87
L2_cache_bank[10]: Access = 2668, Miss = 2606, Miss_rate = 0.977, Pending_hits = 2, Reservation_fails = 73
L2_cache_bank[11]: Access = 2732, Miss = 2608, Miss_rate = 0.955, Pending_hits = 4, Reservation_fails = 94
L2_total_cache_accesses = 32317
L2_total_cache_misses = 31287
L2_total_cache_miss_rate = 0.9681
L2_total_cache_pending_hits = 55
L2_total_cache_reservation_fails = 1311
L2_total_cache_breakdown:
	L2_cache_stats_breakdown[GLOBAL_ACC_R][MISS] = 31250
	L2_cache_stats_breakdown[GLOBAL_ACC_R][RESERVATION_FAIL] = 797
	L2_cache_stats_breakdown[CONST_ACC_R][HIT] = 11
	L2_cache_stats_breakdown[CONST_ACC_R][HIT_RESERVED] = 3
	L2_cache_stats_breakdown[CONST_ACC_R][MISS] = 1
	L2_cache_stats_breakdown[CONST_ACC_R][RESERVATION_FAIL] = 102
	L2_cache_stats_breakdown[GLOBAL_ACC_W][HIT] = 905
	L2_cache_stats_breakdown[GLOBAL_ACC_W][HIT_RESERVED] = 41
	L2_cache_stats_breakdown[GLOBAL_ACC_W][MISS] = 31
	L2_cache_stats_breakdown[GLOBAL_ACC_W][RESERVATION_FAIL] = 60
	L2_cache_stats_breakdown[INST_ACC_R][HIT] = 59
	L2_cache_stats_breakdown[INST_ACC_R][HIT_RESERVED] = 11
	L2_cache_stats_breakdown[INST_ACC_R][MISS] = 5
	L2_cache_stats_breakdown[INST_ACC_R][RESERVATION_FAIL] = 352
L2_cache_data_port_util = 0.001
L2_cache_fill_port_util = 0.118

icnt_total_pkts_mem_to_simt=157647
icnt_total_pkts_simt_to_mem=33294
LD_mem_lat_dist  0 0 0 0 0 0 0 0 0 0 0 0 0 0 0 0 0 0 0 0 0 0 0 0 0 0 0
ST_mem_lat_dist  0 0 0 0 0 0 0 0 0 0 0 0 0 0 0 0 0 0 0 0 0 0 0 0 0 0 0
----------------------------Interconnect-DETAILS--------------------------------
Class 0:
Packet latency average = 13.4001
	minimum = 6
	maximum = 134
Network latency average = 12.2867
	minimum = 6
	maximum = 101
Slowest packet = 14
Flit latency average = 11.8949
	minimum = 6
	maximum = 97
Slowest flit = 32010
Fragmentation average = 0
	minimum = 0
	maximum = 0
Injected packet rate average = 0.0269861
	minimum = 0.0242484 (at node 0)
	maximum = 0.030798 (at node 22)
Accepted packet rate average = 0.0269861
	minimum = 0.0242484 (at node 0)
	maximum = 0.030798 (at node 22)
Injected flit rate average = 0.0797219
	minimum = 0.0249811 (at node 0)
	maximum = 0.149887 (at node 15)
Accepted flit rate average= 0.0797219
	minimum = 0.030798 (at node 16)
	maximum = 0.120103 (at node 5)
Injected packet length average = 2.95419
Accepted packet length average = 2.95419
Total in-flight flits = 0 (0 measured)
====== Overall Traffic Statistics ======
====== Traffic class 0 ======
Packet latency average = 13.4001 (1 samples)
	minimum = 6 (1 samples)
	maximum = 134 (1 samples)
Network latency average = 12.2867 (1 samples)
	minimum = 6 (1 samples)
	maximum = 101 (1 samples)
Flit latency average = 11.8949 (1 samples)
	minimum = 6 (1 samples)
	maximum = 97 (1 samples)
Fragmentation average = 0 (1 samples)
	minimum = 0 (1 samples)
	maximum = 0 (1 samples)
Injected packet rate average = 0.0269861 (1 samples)
	minimum = 0.0242484 (1 samples)
	maximum = 0.030798 (1 samples)
Accepted packet rate average = 0.0269861 (1 samples)
	minimum = 0.0242484 (1 samples)
	maximum = 0.030798 (1 samples)
Injected flit rate average = 0.0797219 (1 samples)
	minimum = 0.0249811 (1 samples)
	maximum = 0.149887 (1 samples)
Accepted flit rate average = 0.0797219 (1 samples)
	minimum = 0.030798 (1 samples)
	maximum = 0.120103 (1 samples)
Injected packet size average = 2.95419 (1 samples)
Accepted packet size average = 2.95419 (1 samples)
Hops average = 1 (1 samples)
----------------------------END-of-Interconnect-DETAILS-------------------------


gpgpu_simulation_time = 0 days, 0 hrs, 1 min, 29 sec (89 sec)
gpgpu_simulation_rate = 696899 (inst/sec)
gpgpu_simulation_rate = 996 (cycle/sec)
88.525459 s
Copying data from device to host...0.000512 s
Verifying results...TEST PASSED

